STU_A_299
          05071912473D 1   1.00000     0.00000     0
            
 61 68  0  0  0  0            999 V2000
    2.1450   30.7330    5.8200 O   0  0  0  0  0  0  0  0  0  0  0  0
    1.2830   26.2450   11.2960 O   0  0  0  0  0  0  0  0  0  0  0  0
   -0.0580   24.6050    8.9150 O   0  0  0  0  0  0  0  0  0  0  0  0
    2.1900   23.5100   12.2490 N   0  0  0  0  0  0  0  0  0  0  0  0
    0.2460   31.4880    6.8730 N   0  0  0  0  0  0  0  0  0  0  0  0
    1.7090   25.9710    8.1520 N   0  0  0  0  0  0  0  0  0  0  0  0
   -1.0180   26.5730    9.8090 N   0  0  0  0  0  0  0  0  0  0  0  0
    0.7080   27.3650   11.9400 C   0  0  0  0  0  0  0  0  0  0  0  0
    2.2190   22.0360   12.4640 C   0  0  0  0  0  0  0  0  0  0  0  0
   -1.7820   24.3150   10.4450 C   0  0  0  0  0  0  0  0  0  0  0  0
   -0.7870   31.0610    7.7940 C   0  0  0  0  0  0  0  0  0  0  0  0
    4.7040   25.7920    6.0470 C   0  0  0  0  0  0  0  0  0  0  0  0
   -4.0610   27.9440   11.4680 C   0  0  0  0  0  0  0  0  0  0  0  0
    4.6280   27.1160    5.5550 C   0  0  0  0  0  0  0  0  0  0  0  0
   -4.0150   29.2500   10.8950 C   0  0  0  0  0  0  0  0  0  0  0  0
    3.7550   25.3170    6.9230 C   0  0  0  0  0  0  0  0  0  0  0  0
   -3.1120   27.0110   11.1730 C   0  0  0  0  0  0  0  0  0  0  0  0
   -2.9870   29.5370   10.0290 C   0  0  0  0  0  0  0  0  0  0  0  0
    3.6100   27.9460    5.9210 C   0  0  0  0  0  0  0  0  0  0  0  0
    2.1900   24.1630    9.8170 C   0  0  0  0  0  0  0  0  0  0  0  0
    1.1910   30.5900    6.5600 C   0  0  0  0  0  0  0  0  0  0  0  0
    1.3300   24.6420    8.6200 C   0  0  1  0  0  0  0  0  0  0  0  0
    0.3990   25.1070   11.3170 C   0  0  2  0  0  0  0  0  0  0  0  0
    1.2850   23.8640   11.0150 C   0  0  2  0  0  0  0  0  0  0  0  0
    2.7410   26.1970    7.3090 C   0  0  0  0  0  0  0  0  0  0  0  0
   -2.1080   27.3050   10.3030 C   0  0  0  0  0  0  0  0  0  0  0  0
    0.8600   27.1010    8.2060 C   0  0  0  0  0  0  0  0  0  0  0  0
   -0.2490   27.3530    8.9070 C   0  0  0  0  0  0  0  0  0  0  0  0
   -0.3120   29.6130    8.0170 C   0  0  0  0  0  0  0  0  0  0  0  0
   -2.0370   28.5990    9.7020 C   0  0  0  0  0  0  0  0  0  0  0  0
    2.6460   27.5280    6.8110 C   0  0  0  0  0  0  0  0  0  0  0  0
    0.7740   29.3740    7.3290 C   0  0  0  0  0  0  0  0  0  0  0  0
   -0.9010   28.6450    8.8630 C   0  0  0  0  0  0  0  0  0  0  0  0
    1.4780   28.0810    7.3700 C   0  0  0  0  0  0  0  0  0  0  0  0
   -0.5830   25.1790   10.1000 C   0  0  1  0  0  0  0  0  0  0  0  0
    3.1199   23.8370   12.0806 H   0  0  0  0  0  0  0  0  0  0  0  0
    0.2540   32.4109    6.4880 H   0  0  0  0  0  0  0  0  0  0  0  0
    1.3471   28.1333   11.9064 H   0  0  0  0  0  0  0  0  0  0  0  0
   -0.1410   27.6171   11.4756 H   0  0  0  0  0  0  0  0  0  0  0  0
    0.5112   27.1366   12.8935 H   0  0  0  0  0  0  0  0  0  0  0  0
    2.7980   21.8254   13.2516 H   0  0  0  0  0  0  0  0  0  0  0  0
    1.2907   21.7057   12.6349 H   0  0  0  0  0  0  0  0  0  0  0  0
    2.5877   21.5876   11.6498 H   0  0  0  0  0  0  0  0  0  0  0  0
   -2.2121   24.6596   11.2794 H   0  0  0  0  0  0  0  0  0  0  0  0
   -2.4412   24.3443    9.6936 H   0  0  0  0  0  0  0  0  0  0  0  0
   -1.4827   23.3718   10.5893 H   0  0  0  0  0  0  0  0  0  0  0  0
   -1.6976   31.0994    7.3826 H   0  0  0  0  0  0  0  0  0  0  0  0
   -0.7808   31.5939    8.6402 H   0  0  0  0  0  0  0  0  0  0  0  0
    5.4530   25.1967    5.7561 H   0  0  0  0  0  0  0  0  0  0  0  0
   -4.8022   27.7091   12.0968 H   0  0  0  0  0  0  0  0  0  0  0  0
    5.3326   27.4488    4.9283 H   0  0  0  0  0  0  0  0  0  0  0  0
   -4.7090   29.9350   11.1166 H   0  0  0  0  0  0  0  0  0  0  0  0
    3.7898   24.3795    7.2694 H   0  0  0  0  0  0  0  0  0  0  0  0
   -3.1539   26.1067   11.5978 H   0  0  0  0  0  0  0  0  0  0  0  0
   -2.9288   30.4508    9.6269 H   0  0  0  0  0  0  0  0  0  0  0  0
    3.5629   28.8688    5.5387 H   0  0  0  0  0  0  0  0  0  0  0  0
    2.8434   24.8785   10.0643 H   0  0  0  0  0  0  0  0  0  0  0  0
    2.6856   23.3335    9.5595 H   0  0  0  0  0  0  0  0  0  0  0  0
    1.4901   24.0050    7.8659 H   0  0  0  0  0  0  0  0  0  0  0  0
   -0.0854   25.0220   12.1877 H   0  0  0  0  0  0  0  0  0  0  0  0
    0.6981   23.0834   10.8000 H   0  0  0  0  0  0  0  0  0  0  0  0
  1 21  2  0  0  0  0
  2  8  1  0  0  0  0
  2 23  1  0  0  0  0
  3 22  1  0  0  0  0
  3 35  1  0  0  0  0
  4  9  1  0  0  0  0
  4 24  1  0  0  0  0
  5 11  1  0  0  0  0
  5 21  1  0  0  0  0
  6 22  1  0  0  0  0
  6 25  1  0  0  0  0
  6 27  1  0  0  0  0
  7 26  1  0  0  0  0
  7 28  1  0  0  0  0
  7 35  1  0  0  0  0
 10 35  1  0  0  0  0
 11 29  1  0  0  0  0
 12 14  2  0  0  0  0
 12 16  1  0  0  0  0
 13 15  2  0  0  0  0
 13 17  1  0  0  0  0
 14 19  1  0  0  0  0
 15 18  1  0  0  0  0
 16 25  2  0  0  0  0
 17 26  2  0  0  0  0
 18 30  2  0  0  0  0
 19 31  2  0  0  0  0
 20 22  1  0  0  0  0
 20 24  1  0  0  0  0
 21 32  1  0  0  0  0
 23 24  1  0  0  0  0
 23 35  1  0  0  0  0
 25 31  1  0  0  0  0
 26 30  1  0  0  0  0
 27 28  1  0  0  0  0
 27 34  2  0  0  0  0
 28 33  2  0  0  0  0
 29 32  2  0  0  0  0
 29 33  1  0  0  0  0
 30 33  1  0  0  0  0
 31 34  1  0  0  0  0
 32 34  1  0  0  0  0
  4 36  1  0  0  0  0
  5 37  1  0  0  0  0
  8 38  1  0  0  0  0
  8 39  1  0  0  0  0
  8 40  1  0  0  0  0
  9 41  1  0  0  0  0
  9 42  1  0  0  0  0
  9 43  1  0  0  0  0
 10 44  1  0  0  0  0
 10 45  1  0  0  0  0
 10 46  1  0  0  0  0
 11 47  1  0  0  0  0
 11 48  1  0  0  0  0
 12 49  1  0  0  0  0
 13 50  1  0  0  0  0
 14 51  1  0  0  0  0
 15 52  1  0  0  0  0
 16 53  1  0  0  0  0
 17 54  1  0  0  0  0
 18 55  1  0  0  0  0
 19 56  1  0  0  0  0
 20 57  1  0  0  0  0
 20 58  1  0  0  0  0
 22 59  1  0  0  0  0
 23 60  1  0  0  0  0
 24 61  1  0  0  0  0
M  END
$$$$
