ATP_A_381
          05071912473D 1   1.00000     0.00000     0
            
 47 49  0  0  0  0            999 V2000
   -4.1057   24.1473   15.0458 P   0  0  0  0  0  0  0  0  0  0  0  0
   -1.6866   23.4518   13.7451 P   0  0  0  0  0  0  0  0  0  0  0  0
   -2.9497   24.2815   11.1553 P   0  0  0  0  0  0  0  0  0  0  0  0
   -4.5014   24.2123   16.4584 O   0  0  0  0  0  0  0  0  0  0  0  0
   -3.7872   25.4968   14.5174 O   0  0  0  0  0  0  0  0  0  0  0  0
   -5.2691   23.6756   14.2303 O   0  0  0  0  0  0  0  0  0  0  0  0
   -1.0398   24.7501   13.8050 O   0  0  0  0  0  0  0  0  0  0  0  0
   -0.6915   22.3526   13.8213 O   0  0  0  0  0  0  0  0  0  0  0  0
   -4.0055   23.5383   10.3746 O   0  0  0  0  0  0  0  0  0  0  0  0
   -3.5807   25.5294   11.6412 O   0  0  0  0  0  0  0  0  0  0  0  0
    2.3245   25.7106   10.8155 O   0  0  0  0  0  0  0  0  0  0  0  0
    2.2614   23.2016    9.8164 O   0  0  0  0  0  0  0  0  0  0  0  0
   -2.8713   23.1933   14.7726 O   0  0  0  0  0  0  0  0  0  0  0  0
   -2.4601   23.2740   12.3285 O   0  0  0  0  0  0  0  0  0  0  0  0
   -1.6659   24.5389   10.2816 O   0  0  0  0  0  0  0  0  0  0  0  0
    0.2216   24.6907    8.1006 O   0  0  0  0  0  0  0  0  0  0  0  0
   -0.0247   31.4333    7.4042 N   0  0  0  0  0  0  0  0  0  0  0  0
    1.6496   30.3185    6.3499 N   0  0  0  0  0  0  0  0  0  0  0  0
    2.1586   27.9608    6.5885 N   0  0  0  0  0  0  0  0  0  0  0  0
   -0.6365   28.7396    8.6140 N   0  0  0  0  0  0  0  0  0  0  0  0
    0.5700   26.8903    8.1608 N   0  0  0  0  0  0  0  0  0  0  0  0
   -1.3779   23.4156    9.3878 C   0  0  0  0  0  0  0  0  0  0  0  0
    2.3639   29.1758    6.0991 C   0  0  0  0  0  0  0  0  0  0  0  0
   -0.4681   27.4923    8.8047 C   0  0  0  0  0  0  0  0  0  0  0  0
    1.1018   25.3544   10.1246 C   0  0  2  0  0  0  0  0  0  0  0  0
    0.9723   23.7871   10.1934 C   0  0  1  0  0  0  0  0  0  0  0  0
    1.1564   25.6087    8.5889 C   0  0  1  0  0  0  0  0  0  0  0  0
    0.5930   30.2801    7.1937 C   0  0  0  0  0  0  0  0  0  0  0  0
    0.0842   23.5462    8.9628 C   0  0  2  0  0  0  0  0  0  0  0  0
    1.0914   27.9644    7.4268 C   0  0  0  0  0  0  0  0  0  0  0  0
    0.3049   29.0546    7.7530 C   0  0  0  0  0  0  0  0  0  0  0  0
   -4.7101   23.2918   16.7887 H   0  0  0  0  0  0  0  0  0  0  0  0
   -3.5215   25.4242   13.5561 H   0  0  0  0  0  0  0  0  0  0  0  0
   -1.7318   25.4700   13.7517 H   0  0  0  0  0  0  0  0  0  0  0  0
   -3.6218   22.6836   10.0252 H   0  0  0  0  0  0  0  0  0  0  0  0
    2.4428   26.7033   10.7934 H   0  0  0  0  0  0  0  0  0  0  0  0
    2.1984   22.2043    9.8544 H   0  0  0  0  0  0  0  0  0  0  0  0
   -0.8134   31.4733    8.0176 H   0  0  0  0  0  0  0  0  0  0  0  0
    0.2979   32.2635    6.9496 H   0  0  0  0  0  0  0  0  0  0  0  0
   -1.9735   23.4537    8.5855 H   0  0  0  0  0  0  0  0  0  0  0  0
   -1.5200   22.5498    9.8676 H   0  0  0  0  0  0  0  0  0  0  0  0
    3.1350   29.2702    5.4694 H   0  0  0  0  0  0  0  0  0  0  0  0
   -1.0761   26.9733    9.4055 H   0  0  0  0  0  0  0  0  0  0  0  0
    0.3087   25.8019   10.5379 H   0  0  0  0  0  0  0  0  0  0  0  0
    0.5944   23.4397   11.0517 H   0  0  0  0  0  0  0  0  0  0  0  0
    2.0699   25.4614    8.2099 H   0  0  0  0  0  0  0  0  0  0  0  0
    0.3779   22.7187    8.4842 H   0  0  0  0  0  0  0  0  0  0  0  0
  1  4  1  0  0  0  0
  1  5  1  0  0  0  0
  1  6  2  0  0  0  0
  1 13  1  0  0  0  0
  2  7  1  0  0  0  0
  2  8  2  0  0  0  0
  2 13  1  0  0  0  0
  2 14  1  0  0  0  0
  3  9  1  0  0  0  0
  3 10  2  0  0  0  0
  3 14  1  0  0  0  0
  3 15  1  0  0  0  0
 11 25  1  0  0  0  0
 12 26  1  0  0  0  0
 15 22  1  0  0  0  0
 16 27  1  0  0  0  0
 16 29  1  0  0  0  0
 17 28  1  0  0  0  0
 18 23  1  0  0  0  0
 18 28  2  0  0  0  0
 19 23  2  0  0  0  0
 19 30  1  0  0  0  0
 20 24  2  0  0  0  0
 20 31  1  0  0  0  0
 21 24  1  0  0  0  0
 21 27  1  0  0  0  0
 21 30  1  0  0  0  0
 22 29  1  0  0  0  0
 25 26  1  0  0  0  0
 25 27  1  0  0  0  0
 26 29  1  0  0  0  0
 28 31  1  0  0  0  0
 30 31  2  0  0  0  0
  4 32  1  0  0  0  0
  5 33  1  0  0  0  0
  7 34  1  0  0  0  0
  9 35  1  0  0  0  0
 11 36  1  0  0  0  0
 12 37  1  0  0  0  0
 17 38  1  0  0  0  0
 17 39  1  0  0  0  0
 22 40  1  0  0  0  0
 22 41  1  0  0  0  0
 23 42  1  0  0  0  0
 24 43  1  0  0  0  0
 25 44  1  0  0  0  0
 26 45  1  0  0  0  0
 27 46  1  0  0  0  0
 29 47  1  0  0  0  0
M  END
$$$$
