CMG_A_401
          05071912473D 1   1.00000     0.00000     0
            
 35 37  0  0  0  0            999 V2000
    0.5445   27.0432    8.6348 O   0  0  0  0  0  0  0  0  0  0  0  0
    4.0013   28.7967    5.6989 N   0  0  0  0  0  0  0  0  0  0  0  0
    0.4492   31.3852    7.1993 N   0  0  0  0  0  0  0  0  0  0  0  0
   -0.4554   29.8827    8.3407 N   0  0  0  0  0  0  0  0  0  0  0  0
    2.2959   27.8401    7.1543 N   0  0  0  0  0  0  0  0  0  0  0  0
    2.2613   30.0049    6.3753 N   0  0  0  0  0  0  0  0  0  0  0  0
    1.5200   26.0034    8.9424 C   0  0  0  0  0  0  0  0  0  0  0  0
   -0.6448   31.1947    7.9724 C   0  0  0  0  0  0  0  0  0  0  0  0
   -0.0477   22.3010   10.1952 C   0  0  0  0  0  0  0  0  0  0  0  0
   -0.9980   23.5000   10.4272 C   0  0  0  0  0  0  0  0  0  0  0  0
    1.1317   22.9252   11.0539 C   0  0  0  0  0  0  0  0  0  0  0  0
   -0.4220   24.4706    9.3963 C   0  0  0  0  0  0  0  0  0  0  0  0
    1.6373   23.9516    9.9977 C   0  0  0  0  0  0  0  0  0  0  0  0
    2.8478   28.7933    6.4134 C   0  0  0  0  0  0  0  0  0  0  0  0
    1.1664   28.0072    7.8429 C   0  0  0  0  0  0  0  0  0  0  0  0
    1.1610   30.2710    7.0686 C   0  0  0  0  0  0  0  0  0  0  0  0
    0.7706   25.2126   10.0899 C   0  0  0  0  0  0  0  0  0  0  0  0
    0.5931   29.2757    7.8010 C   0  0  0  0  0  0  0  0  0  0  0  0
    4.2714   29.6136    5.1893 H   0  0  0  0  0  0  0  0  0  0  0  0
    4.5813   27.9823    5.6818 H   0  0  0  0  0  0  0  0  0  0  0  0
   -1.0703   29.4156    8.9761 H   0  0  0  0  0  0  0  0  0  0  0  0
    2.3815   26.3932    9.2678 H   0  0  0  0  0  0  0  0  0  0  0  0
    1.6966   25.4199    8.1497 H   0  0  0  0  0  0  0  0  0  0  0  0
   -1.3819   31.8278    8.2089 H   0  0  0  0  0  0  0  0  0  0  0  0
    0.1925   22.1695    9.2334 H   0  0  0  0  0  0  0  0  0  0  0  0
   -0.3973   21.4431   10.5717 H   0  0  0  0  0  0  0  0  0  0  0  0
   -0.9283   23.8581   11.3583 H   0  0  0  0  0  0  0  0  0  0  0  0
   -1.9502   23.2664   10.2303 H   0  0  0  0  0  0  0  0  0  0  0  0
    1.8290   22.2485   11.2903 H   0  0  0  0  0  0  0  0  0  0  0  0
    0.8016   23.3687   11.8871 H   0  0  0  0  0  0  0  0  0  0  0  0
   -1.1204   25.1289    9.1155 H   0  0  0  0  0  0  0  0  0  0  0  0
   -0.0959   23.9685    8.5954 H   0  0  0  0  0  0  0  0  0  0  0  0
    1.5626   23.5573    9.0818 H   0  0  0  0  0  0  0  0  0  0  0  0
    2.5919   24.1842   10.1837 H   0  0  0  0  0  0  0  0  0  0  0  0
    0.6294   25.6496   10.9783 H   0  0  0  0  0  0  0  0  0  0  0  0
  1  7  1  0  0  0  0
  1 15  1  0  0  0  0
  2 14  1  0  0  0  0
  3  8  2  0  0  0  0
  3 16  1  0  0  0  0
  4  8  1  0  0  0  0
  4 18  1  0  0  0  0
  5 14  2  0  0  0  0
  5 15  1  0  0  0  0
  6 14  1  0  0  0  0
  6 16  2  0  0  0  0
  7 17  1  0  0  0  0
  9 10  1  0  0  0  0
  9 11  1  0  0  0  0
 10 12  1  0  0  0  0
 11 13  1  0  0  0  0
 12 17  1  0  0  0  0
 13 17  1  0  0  0  0
 15 18  2  0  0  0  0
 16 18  1  0  0  0  0
  2 19  1  0  0  0  0
  2 20  1  0  0  0  0
  4 21  1  0  0  0  0
  7 22  1  0  0  0  0
  7 23  1  0  0  0  0
  8 24  1  0  0  0  0
  9 25  1  0  0  0  0
  9 26  1  0  0  0  0
 10 27  1  0  0  0  0
 10 28  1  0  0  0  0
 11 29  1  0  0  0  0
 11 30  1  0  0  0  0
 12 31  1  0  0  0  0
 12 32  1  0  0  0  0
 13 33  1  0  0  0  0
 13 34  1  0  0  0  0
 17 35  1  0  0  0  0
M  END
$$$$
