1PU_A_501
          05071912473D 1   1.00000     0.00000     0
            
 39 42  0  0  0  0            999 V2000
    2.1386   30.7135    6.6261 O   0  0  0  0  0  0  0  0  0  0  0  0
   -3.7533   27.9488   10.8039 O   0  0  0  0  0  0  0  0  0  0  0  0
    3.0129   26.9336    8.0473 N   0  0  0  0  0  0  0  0  0  0  0  0
    3.2288   28.7563    6.6063 N   0  0  0  0  0  0  0  0  0  0  0  0
    1.2737   28.9645    7.7051 N   0  0  0  0  0  0  0  0  0  0  0  0
   -1.8410   26.8466   10.1512 N   0  0  0  0  0  0  0  0  0  0  0  0
    3.2802   25.7184    8.5211 C   0  0  0  0  0  0  0  0  0  0  0  0
   -1.7345   25.8133   11.1905 C   0  0  0  0  0  0  0  0  0  0  0  0
    4.2455   24.9126    7.9157 C   0  0  0  0  0  0  0  0  0  0  0  0
   -0.2188   25.5711   11.2306 C   0  0  0  0  0  0  0  0  0  0  0  0
    4.9240   25.4239    6.8005 C   0  0  0  0  0  0  0  0  0  0  0  0
   -1.7007   31.1710    8.5726 C   0  0  0  0  0  0  0  0  0  0  0  0
    4.6200   26.7171    6.3221 C   0  0  0  0  0  0  0  0  0  0  0  0
   -0.4681   30.7502    8.0463 C   0  0  0  0  0  0  0  0  0  0  0  0
    0.4142   26.7617   10.4845 C   0  0  0  0  0  0  0  0  0  0  0  0
   -2.5016   30.3074    9.3082 C   0  0  0  0  0  0  0  0  0  0  0  0
    2.2099   29.5270    6.9607 C   0  0  0  0  0  0  0  0  0  0  0  0
    3.6370   27.4496    6.9879 C   0  0  0  0  0  0  0  0  0  0  0  0
   -2.6833   27.8967   10.2435 C   0  0  0  0  0  0  0  0  0  0  0  0
    0.0124   29.4387    8.2368 C   0  0  0  0  0  0  0  0  0  0  0  0
   -0.6162   27.1046    9.3980 C   0  0  2  0  0  0  0  0  0  0  0  0
   -2.0491   28.9926    9.5172 C   0  0  0  0  0  0  0  0  0  0  0  0
   -0.7950   28.5563    8.9903 C   0  0  0  0  0  0  0  0  0  0  0  0
    3.8337   29.1812    5.9329 H   0  0  0  0  0  0  0  0  0  0  0  0
    1.4780   28.0172    7.9518 H   0  0  0  0  0  0  0  0  0  0  0  0
    2.7836   25.3792    9.3201 H   0  0  0  0  0  0  0  0  0  0  0  0
   -2.2299   24.9838   10.9325 H   0  0  0  0  0  0  0  0  0  0  0  0
   -2.0746   26.1446   12.0706 H   0  0  0  0  0  0  0  0  0  0  0  0
    4.4471   23.9982    8.2668 H   0  0  0  0  0  0  0  0  0  0  0  0
    0.0092   24.7118   10.7728 H   0  0  0  0  0  0  0  0  0  0  0  0
    0.1044   25.5409   12.1765 H   0  0  0  0  0  0  0  0  0  0  0  0
    5.6228   24.8730    6.3441 H   0  0  0  0  0  0  0  0  0  0  0  0
   -2.0071   32.1097    8.4147 H   0  0  0  0  0  0  0  0  0  0  0  0
    5.0957   27.0971    5.5288 H   0  0  0  0  0  0  0  0  0  0  0  0
    0.0836   31.3989    7.5220 H   0  0  0  0  0  0  0  0  0  0  0  0
    1.2891   26.5013   10.0760 H   0  0  0  0  0  0  0  0  0  0  0  0
    0.5519   27.5362   11.1018 H   0  0  0  0  0  0  0  0  0  0  0  0
   -3.3782   30.6129    9.6800 H   0  0  0  0  0  0  0  0  0  0  0  0
   -0.5339   26.5026    8.6038 H   0  0  0  0  0  0  0  0  0  0  0  0
  1 17  2  0  0  0  0
  2 19  2  0  0  0  0
  3  7  1  0  0  0  0
  3 18  2  0  0  0  0
  4 17  1  0  0  0  0
  4 18  1  0  0  0  0
  5 17  1  0  0  0  0
  5 20  1  0  0  0  0
  6  8  1  0  0  0  0
  6 19  1  0  0  0  0
  6 21  1  0  0  0  0
  7  9  2  0  0  0  0
  8 10  1  0  0  0  0
  9 11  1  0  0  0  0
 10 15  1  0  0  0  0
 11 13  2  0  0  0  0
 12 14  1  0  0  0  0
 12 16  2  0  0  0  0
 13 18  1  0  0  0  0
 14 20  2  0  0  0  0
 15 21  1  0  0  0  0
 16 22  1  0  0  0  0
 19 22  1  0  0  0  0
 20 23  1  0  0  0  0
 21 23  1  0  0  0  0
 22 23  2  0  0  0  0
  4 24  1  0  0  0  0
  5 25  1  0  0  0  0
  7 26  1  0  0  0  0
  8 27  1  0  0  0  0
  8 28  1  0  0  0  0
  9 29  1  0  0  0  0
 10 30  1  0  0  0  0
 10 31  1  0  0  0  0
 11 32  1  0  0  0  0
 12 33  1  0  0  0  0
 13 34  1  0  0  0  0
 14 35  1  0  0  0  0
 15 36  1  0  0  0  0
 15 37  1  0  0  0  0
 16 38  1  0  0  0  0
 21 39  1  0  0  0  0
M  END
$$$$
