1PU_A_501
          05071912473D 1   1.00000     0.00000     0
            
 39 42  0  0  0  0            999 V2000
    2.1093   30.4502    6.4428 O   0  0  0  0  0  0  0  0  0  0  0  0
   -3.6940   28.0995   10.7089 O   0  0  0  0  0  0  0  0  0  0  0  0
    2.8569   26.6823    7.9385 N   0  0  0  0  0  0  0  0  0  0  0  0
    3.3382   28.6012    6.7205 N   0  0  0  0  0  0  0  0  0  0  0  0
    1.3331   28.8271    7.7058 N   0  0  0  0  0  0  0  0  0  0  0  0
   -1.8449   26.9124   10.1271 N   0  0  0  0  0  0  0  0  0  0  0  0
    3.0832   25.4602    8.4282 C   0  0  0  0  0  0  0  0  0  0  0  0
   -1.7807   25.9216   11.2208 C   0  0  0  0  0  0  0  0  0  0  0  0
    4.2720   24.7719    8.1430 C   0  0  0  0  0  0  0  0  0  0  0  0
   -0.2575   25.7245   11.3780 C   0  0  0  0  0  0  0  0  0  0  0  0
    5.2158   25.4068    7.3307 C   0  0  0  0  0  0  0  0  0  0  0  0
   -1.4998   31.1988    8.4832 C   0  0  0  0  0  0  0  0  0  0  0  0
    4.9492   26.6936    6.8274 C   0  0  0  0  0  0  0  0  0  0  0  0
   -0.2873   30.7128    7.9719 C   0  0  0  0  0  0  0  0  0  0  0  0
    0.4174   26.8174   10.5183 C   0  0  0  0  0  0  0  0  0  0  0  0
   -2.3465   30.3785    9.2231 C   0  0  0  0  0  0  0  0  0  0  0  0
    2.2561   29.3318    6.9222 C   0  0  0  0  0  0  0  0  0  0  0  0
    3.7280   27.3084    7.1639 C   0  0  0  0  0  0  0  0  0  0  0  0
   -2.6370   27.9954   10.1809 C   0  0  0  0  0  0  0  0  0  0  0  0
    0.1156   29.3826    8.2017 C   0  0  0  0  0  0  0  0  0  0  0  0
   -0.5960   27.1140    9.3890 C   0  0  2  0  0  0  0  0  0  0  0  0
   -1.9538   29.0514    9.4562 C   0  0  0  0  0  0  0  0  0  0  0  0
   -0.7290   28.5578    8.9560 C   0  0  0  0  0  0  0  0  0  0  0  0
    4.0193   29.0470    6.1396 H   0  0  0  0  0  0  0  0  0  0  0  0
    1.5139   27.8912    8.0081 H   0  0  0  0  0  0  0  0  0  0  0  0
    2.3929   25.0281    9.0085 H   0  0  0  0  0  0  0  0  0  0  0  0
   -2.2341   25.0676   10.9657 H   0  0  0  0  0  0  0  0  0  0  0  0
   -2.1903   26.2787   12.0603 H   0  0  0  0  0  0  0  0  0  0  0  0
    4.4388   23.8564    8.5091 H   0  0  0  0  0  0  0  0  0  0  0  0
    0.0086   24.8166   11.0539 H   0  0  0  0  0  0  0  0  0  0  0  0
    0.0069   25.8268   12.3369 H   0  0  0  0  0  0  0  0  0  0  0  0
    6.0764   24.9488    7.1083 H   0  0  0  0  0  0  0  0  0  0  0  0
   -1.7599   32.1493    8.3134 H   0  0  0  0  0  0  0  0  0  0  0  0
    5.6127   27.1613    6.2435 H   0  0  0  0  0  0  0  0  0  0  0  0
    0.2999   31.3197    7.4362 H   0  0  0  0  0  0  0  0  0  0  0  0
    1.2803   26.4840   10.1385 H   0  0  0  0  0  0  0  0  0  0  0  0
    0.5881   27.6385   11.0629 H   0  0  0  0  0  0  0  0  0  0  0  0
   -3.2134   30.7263    9.5800 H   0  0  0  0  0  0  0  0  0  0  0  0
   -0.5022   26.4880    8.6148 H   0  0  0  0  0  0  0  0  0  0  0  0
  1 17  2  0  0  0  0
  2 19  2  0  0  0  0
  3  7  1  0  0  0  0
  3 18  2  0  0  0  0
  4 17  1  0  0  0  0
  4 18  1  0  0  0  0
  5 17  1  0  0  0  0
  5 20  1  0  0  0  0
  6  8  1  0  0  0  0
  6 19  1  0  0  0  0
  6 21  1  0  0  0  0
  7  9  2  0  0  0  0
  8 10  1  0  0  0  0
  9 11  1  0  0  0  0
 10 15  1  0  0  0  0
 11 13  2  0  0  0  0
 12 14  1  0  0  0  0
 12 16  2  0  0  0  0
 13 18  1  0  0  0  0
 14 20  2  0  0  0  0
 15 21  1  0  0  0  0
 16 22  1  0  0  0  0
 19 22  1  0  0  0  0
 20 23  1  0  0  0  0
 21 23  1  0  0  0  0
 22 23  2  0  0  0  0
  4 24  1  0  0  0  0
  5 25  1  0  0  0  0
  7 26  1  0  0  0  0
  8 27  1  0  0  0  0
  8 28  1  0  0  0  0
  9 29  1  0  0  0  0
 10 30  1  0  0  0  0
 10 31  1  0  0  0  0
 11 32  1  0  0  0  0
 12 33  1  0  0  0  0
 13 34  1  0  0  0  0
 14 35  1  0  0  0  0
 15 36  1  0  0  0  0
 15 37  1  0  0  0  0
 16 38  1  0  0  0  0
 21 39  1  0  0  0  0
M  END
$$$$
