207_A_1299
          05071912473D 1   1.00000     0.00000     0
            
 36 38  0  0  0  0            999 V2000
    0.5807   26.8350    8.6396 O   0  0  0  0  0  0  0  0  0  0  0  0
    3.9207   28.5795    5.6963 N   0  0  0  0  0  0  0  0  0  0  0  0
    0.2509   31.2725    7.2944 N   0  0  0  0  0  0  0  0  0  0  0  0
   -0.6017   29.6131    8.4562 N   0  0  0  0  0  0  0  0  0  0  0  0
    2.2653   27.6856    7.1437 N   0  0  0  0  0  0  0  0  0  0  0  0
    1.3309   25.6342    8.8258 C   0  0  0  0  0  0  0  0  0  0  0  0
   -0.7471   30.8889    8.1173 C   0  0  0  0  0  0  0  0  0  0  0  0
    0.1382   21.9523   10.4810 C   0  0  0  0  0  0  0  0  0  0  0  0
   -0.1545   22.6660    9.1746 C   0  0  0  0  0  0  0  0  0  0  0  0
    1.3117   22.6184   11.1920 C   0  0  0  0  0  0  0  0  0  0  0  0
   -0.4988   24.1172    9.4520 C   0  0  0  0  0  0  0  0  0  0  0  0
    1.8045   23.9203   10.5440 C   0  0  0  0  0  0  0  0  0  0  0  0
    2.1965   29.9791    6.4055 C   0  0  0  0  0  0  0  0  0  0  0  0
    2.7803   28.7231    6.4301 C   0  0  0  0  0  0  0  0  0  0  0  0
    1.1397   27.8473    7.8799 C   0  0  0  0  0  0  0  0  0  0  0  0
    0.7325   24.8432    9.9738 C   0  0  0  0  0  0  0  0  0  0  0  0
    1.0615   30.2445    7.0998 C   0  0  0  0  0  0  0  0  0  0  0  0
    0.4899   29.1722    7.8523 C   0  0  0  0  0  0  0  0  0  0  0  0
    4.2831   29.3545    5.1786 H   0  0  0  0  0  0  0  0  0  0  0  0
    4.3946   27.6991    5.6759 H   0  0  0  0  0  0  0  0  0  0  0  0
   -1.2038   29.0851    9.0550 H   0  0  0  0  0  0  0  0  0  0  0  0
    2.2811   25.8632    9.0372 H   0  0  0  0  0  0  0  0  0  0  0  0
    1.2980   25.0866    7.9897 H   0  0  0  0  0  0  0  0  0  0  0  0
   -1.4907   31.4811    8.4278 H   0  0  0  0  0  0  0  0  0  0  0  0
    0.3654   20.9969   10.2921 H   0  0  0  0  0  0  0  0  0  0  0  0
   -0.6702   21.9929   11.0682 H   0  0  0  0  0  0  0  0  0  0  0  0
   -0.9261   22.2223    8.7188 H   0  0  0  0  0  0  0  0  0  0  0  0
    0.6513   22.6224    8.5840 H   0  0  0  0  0  0  0  0  0  0  0  0
    2.0738   21.9711   11.2074 H   0  0  0  0  0  0  0  0  0  0  0  0
    1.0307   22.8247   12.1293 H   0  0  0  0  0  0  0  0  0  0  0  0
   -1.2264   24.1616   10.1365 H   0  0  0  0  0  0  0  0  0  0  0  0
   -0.8090   24.5530    8.6071 H   0  0  0  0  0  0  0  0  0  0  0  0
    2.4219   23.6734    9.7971 H   0  0  0  0  0  0  0  0  0  0  0  0
    2.3096   24.4332   11.2381 H   0  0  0  0  0  0  0  0  0  0  0  0
    2.6207   30.7055    5.8647 H   0  0  0  0  0  0  0  0  0  0  0  0
    0.4478   25.4823   10.6883 H   0  0  0  0  0  0  0  0  0  0  0  0
  1  6  1  0  0  0  0
  1 15  1  0  0  0  0
  2 14  1  0  0  0  0
  3  7  2  0  0  0  0
  3 17  1  0  0  0  0
  4  7  1  0  0  0  0
  4 18  1  0  0  0  0
  5 14  2  0  0  0  0
  5 15  1  0  0  0  0
  6 16  1  0  0  0  0
  8  9  1  0  0  0  0
  8 10  1  0  0  0  0
  9 11  1  0  0  0  0
 10 12  1  0  0  0  0
 11 16  1  0  0  0  0
 12 16  1  0  0  0  0
 13 14  1  0  0  0  0
 13 17  2  0  0  0  0
 15 18  2  0  0  0  0
 17 18  1  0  0  0  0
  2 19  1  0  0  0  0
  2 20  1  0  0  0  0
  4 21  1  0  0  0  0
  6 22  1  0  0  0  0
  6 23  1  0  0  0  0
  7 24  1  0  0  0  0
  8 25  1  0  0  0  0
  8 26  1  0  0  0  0
  9 27  1  0  0  0  0
  9 28  1  0  0  0  0
 10 29  1  0  0  0  0
 10 30  1  0  0  0  0
 11 31  1  0  0  0  0
 11 32  1  0  0  0  0
 12 33  1  0  0  0  0
 12 34  1  0  0  0  0
 13 35  1  0  0  0  0
 16 36  1  0  0  0  0
M  END
$$$$
