LS1_A_299
          05071912473D 1   1.00000     0.00000     0
            
 38 40  0  0  0  0            999 V2000
    6.9483   23.7973    7.0756 S   0  0  0  0  0  0  0  0  0  0  0  0
    7.7988   24.2441    8.1281 O   0  0  0  0  0  0  0  0  0  0  0  0
    7.5250   23.6611    5.7715 O   0  0  0  0  0  0  0  0  0  0  0  0
    1.8794   30.7524    6.4242 O   0  0  0  0  0  0  0  0  0  0  0  0
    6.3735   22.2889    7.4182 N   0  0  0  0  0  0  0  0  0  0  0  0
    2.7164   28.0725    7.0050 N   0  0  0  0  0  0  0  0  0  0  0  0
   -0.1147   31.3544    7.4685 N   0  0  0  0  0  0  0  0  0  0  0  0
    5.6262   21.8345    8.5821 C   0  0  0  0  0  0  0  0  0  0  0  0
    1.3992   28.0822    7.6601 C   0  0  0  0  0  0  0  0  0  0  0  0
   -2.9946   30.3246    9.8700 C   0  0  0  0  0  0  0  0  0  0  0  0
   -2.5614   28.9226   10.0882 C   0  0  0  0  0  0  0  0  0  0  0  0
   -2.1860   31.2417    9.0120 C   0  0  0  0  0  0  0  0  0  0  0  0
    4.6994   25.0071    8.1207 C   0  0  0  0  0  0  0  0  0  0  0  0
    5.5543   25.9273    5.8745 C   0  0  0  0  0  0  0  0  0  0  0  0
   -1.3413   28.4115    9.4043 C   0  0  0  0  0  0  0  0  0  0  0  0
    3.7046   26.0559    8.1725 C   0  0  0  0  0  0  0  0  0  0  0  0
    4.5476   26.9958    5.9173 C   0  0  0  0  0  0  0  0  0  0  0  0
    0.8779   30.5020    7.1087 C   0  0  0  0  0  0  0  0  0  0  0  0
    5.6099   24.9275    6.9731 C   0  0  0  0  0  0  0  0  0  0  0  0
    3.6106   27.0628    7.0594 C   0  0  0  0  0  0  0  0  0  0  0  0
   -0.9886   30.7232    8.3237 C   0  0  0  0  0  0  0  0  0  0  0  0
    0.6220   29.1675    7.7461 C   0  0  0  0  0  0  0  0  0  0  0  0
   -0.5744   29.3445    8.5203 C   0  0  0  0  0  0  0  0  0  0  0  0
    7.1845   21.7041    7.4000 H   0  0  0  0  0  0  0  0  0  0  0  0
    2.9706   28.8816    6.4751 H   0  0  0  0  0  0  0  0  0  0  0  0
   -0.1986   32.3013    7.1582 H   0  0  0  0  0  0  0  0  0  0  0  0
    5.4249   20.8594    8.4891 H   0  0  0  0  0  0  0  0  0  0  0  0
    6.1705   21.9852    9.4074 H   0  0  0  0  0  0  0  0  0  0  0  0
    4.7700   22.3467    8.6493 H   0  0  0  0  0  0  0  0  0  0  0  0
    1.0663   27.2299    8.0636 H   0  0  0  0  0  0  0  0  0  0  0  0
   -3.8336   30.6578   10.3003 H   0  0  0  0  0  0  0  0  0  0  0  0
   -3.0866   28.3231   10.6922 H   0  0  0  0  0  0  0  0  0  0  0  0
   -2.4541   32.1991    8.9049 H   0  0  0  0  0  0  0  0  0  0  0  0
    4.7661   24.3401    8.8628 H   0  0  0  0  0  0  0  0  0  0  0  0
    6.1981   25.8727    5.1113 H   0  0  0  0  0  0  0  0  0  0  0  0
   -1.0412   27.4663    9.5328 H   0  0  0  0  0  0  0  0  0  0  0  0
    3.0781   26.1116    8.9500 H   0  0  0  0  0  0  0  0  0  0  0  0
    4.4963   27.6711    5.1815 H   0  0  0  0  0  0  0  0  0  0  0  0
  1  2  2  0  0  0  0
  1  3  2  0  0  0  0
  1  5  1  0  0  0  0
  1 19  1  0  0  0  0
  4 18  2  0  0  0  0
  5  8  1  0  0  0  0
  6  9  1  0  0  0  0
  6 20  1  0  0  0  0
  7 18  1  0  0  0  0
  7 21  1  0  0  0  0
  9 22  2  0  0  0  0
 10 11  2  0  0  0  0
 10 12  1  0  0  0  0
 11 15  1  0  0  0  0
 12 21  2  0  0  0  0
 13 16  1  0  0  0  0
 13 19  2  0  0  0  0
 14 17  2  0  0  0  0
 14 19  1  0  0  0  0
 15 23  2  0  0  0  0
 16 20  2  0  0  0  0
 17 20  1  0  0  0  0
 18 22  1  0  0  0  0
 21 23  1  0  0  0  0
 22 23  1  0  0  0  0
  5 24  1  0  0  0  0
  6 25  1  0  0  0  0
  7 26  1  0  0  0  0
  8 27  1  0  0  0  0
  8 28  1  0  0  0  0
  8 29  1  0  0  0  0
  9 30  1  0  0  0  0
 10 31  1  0  0  0  0
 11 32  1  0  0  0  0
 12 33  1  0  0  0  0
 13 34  1  0  0  0  0
 14 35  1  0  0  0  0
 15 36  1  0  0  0  0
 16 37  1  0  0  0  0
 17 38  1  0  0  0  0
M  END
$$$$
