LS4_A_299
          05071912473D 1   1.00000     0.00000     0
            
 41 44  0  0  0  0            999 V2000
    4.3282   20.9432    5.3060 S   0  0  0  0  0  0  0  0  0  0  0  0
    7.0480   23.7386    7.1455 S   0  0  0  0  0  0  0  0  0  0  0  0
    8.0210   23.9478    6.1115 O   0  0  0  0  0  0  0  0  0  0  0  0
    7.5119   23.7163    8.4958 O   0  0  0  0  0  0  0  0  0  0  0  0
    1.8223   30.6762    6.3303 O   0  0  0  0  0  0  0  0  0  0  0  0
    6.2947   22.2802    6.8170 N   0  0  0  0  0  0  0  0  0  0  0  0
    6.1416   22.3374    4.2526 N   0  0  0  0  0  0  0  0  0  0  0  0
    2.7471   28.0038    6.9828 N   0  0  0  0  0  0  0  0  0  0  0  0
   -0.0697   31.3265    7.5085 N   0  0  0  0  0  0  0  0  0  0  0  0
    4.2813   21.1319    3.6207 C   0  0  0  0  0  0  0  0  0  0  0  0
    5.3874   21.8865    3.1940 C   0  0  0  0  0  0  0  0  0  0  0  0
    1.4053   28.0064    7.6164 C   0  0  0  0  0  0  0  0  0  0  0  0
   -2.9618   30.3230    9.8911 C   0  0  0  0  0  0  0  0  0  0  0  0
   -2.6017   28.8829   10.0235 C   0  0  0  0  0  0  0  0  0  0  0  0
    4.8256   25.0399    8.2278 C   0  0  0  0  0  0  0  0  0  0  0  0
    5.6916   25.9312    5.9675 C   0  0  0  0  0  0  0  0  0  0  0  0
   -2.1203   31.2405    9.0712 C   0  0  0  0  0  0  0  0  0  0  0  0
   -1.3845   28.3537    9.3451 C   0  0  0  0  0  0  0  0  0  0  0  0
    3.7936   26.0596    8.2383 C   0  0  0  0  0  0  0  0  0  0  0  0
    4.6296   26.9531    5.9609 C   0  0  0  0  0  0  0  0  0  0  0  0
    5.6958   21.9368    5.4813 C   0  0  0  0  0  0  0  0  0  0  0  0
    5.7974   24.9954    7.1093 C   0  0  0  0  0  0  0  0  0  0  0  0
    0.8772   30.4505    7.0900 C   0  0  0  0  0  0  0  0  0  0  0  0
    3.6780   27.0301    7.0887 C   0  0  0  0  0  0  0  0  0  0  0  0
   -0.9395   30.6993    8.3687 C   0  0  0  0  0  0  0  0  0  0  0  0
    0.6336   29.0997    7.7437 C   0  0  0  0  0  0  0  0  0  0  0  0
   -0.5678   29.2939    8.5188 C   0  0  0  0  0  0  0  0  0  0  0  0
    6.2401   21.6007    7.5486 H   0  0  0  0  0  0  0  0  0  0  0  0
    2.9852   28.7984    6.4243 H   0  0  0  0  0  0  0  0  0  0  0  0
   -0.1267   32.2860    7.2324 H   0  0  0  0  0  0  0  0  0  0  0  0
    3.5724   20.7615    3.0205 H   0  0  0  0  0  0  0  0  0  0  0  0
    5.6009   22.0735    2.2351 H   0  0  0  0  0  0  0  0  0  0  0  0
    1.0528   27.1403    7.9709 H   0  0  0  0  0  0  0  0  0  0  0  0
   -3.7738   30.6764   10.3557 H   0  0  0  0  0  0  0  0  0  0  0  0
   -3.1766   28.2717   10.5674 H   0  0  0  0  0  0  0  0  0  0  0  0
    4.8810   24.3719    8.9698 H   0  0  0  0  0  0  0  0  0  0  0  0
    6.3363   25.8704    5.2055 H   0  0  0  0  0  0  0  0  0  0  0  0
   -2.3525   32.2104    8.9977 H   0  0  0  0  0  0  0  0  0  0  0  0
   -1.1210   27.3938    9.4404 H   0  0  0  0  0  0  0  0  0  0  0  0
    3.1583   26.1193    9.0082 H   0  0  0  0  0  0  0  0  0  0  0  0
    4.5533   27.5923    5.1957 H   0  0  0  0  0  0  0  0  0  0  0  0
  1 10  1  0  0  0  0
  1 21  1  0  0  0  0
  2  3  2  0  0  0  0
  2  4  2  0  0  0  0
  2  6  1  0  0  0  0
  2 22  1  0  0  0  0
  5 23  2  0  0  0  0
  6 21  1  0  0  0  0
  7 11  1  0  0  0  0
  7 21  2  0  0  0  0
  8 12  1  0  0  0  0
  8 24  1  0  0  0  0
  9 23  1  0  0  0  0
  9 25  1  0  0  0  0
 10 11  2  0  0  0  0
 12 26  2  0  0  0  0
 13 14  2  0  0  0  0
 13 17  1  0  0  0  0
 14 18  1  0  0  0  0
 15 19  1  0  0  0  0
 15 22  2  0  0  0  0
 16 20  2  0  0  0  0
 16 22  1  0  0  0  0
 17 25  2  0  0  0  0
 18 27  2  0  0  0  0
 19 24  2  0  0  0  0
 20 24  1  0  0  0  0
 23 26  1  0  0  0  0
 25 27  1  0  0  0  0
 26 27  1  0  0  0  0
  6 28  1  0  0  0  0
  8 29  1  0  0  0  0
  9 30  1  0  0  0  0
 10 31  1  0  0  0  0
 11 32  1  0  0  0  0
 12 33  1  0  0  0  0
 13 34  1  0  0  0  0
 14 35  1  0  0  0  0
 15 36  1  0  0  0  0
 16 37  1  0  0  0  0
 17 38  1  0  0  0  0
 18 39  1  0  0  0  0
 19 40  1  0  0  0  0
 20 41  1  0  0  0  0
M  END
$$$$
