HDT_A_1299
          05071912473D 1   1.00000     0.00000     0
            
 40 43  0  0  0  0            999 V2000
    6.3995   23.9537    7.4701 S   0  0  0  0  0  0  0  0  0  0  0  0
    7.4715   24.3898    8.3129 O   0  0  0  0  0  0  0  0  0  0  0  0
    6.9406   23.4189    6.2476 O   0  0  0  0  0  0  0  0  0  0  0  0
    5.5662   22.8201    8.2337 N   0  0  0  0  0  0  0  0  0  0  0  0
    1.6114   30.3888    6.5571 N   0  0  0  0  0  0  0  0  0  0  0  0
   -2.1789   27.7638   10.8077 N   0  0  0  0  0  0  0  0  0  0  0  0
    3.1536   28.6684    6.4058 N   0  0  0  0  0  0  0  0  0  0  0  0
    1.2240   28.4722    7.8160 N   0  0  0  0  0  0  0  0  0  0  0  0
   -0.8098   26.8772    9.3169 N   0  0  0  0  0  0  0  0  0  0  0  0
    0.4809   30.9542    7.0018 C   0  0  0  0  0  0  0  0  0  0  0  0
   -1.6248   28.7245   10.1777 C   0  0  0  0  0  0  0  0  0  0  0  0
   -0.1315   25.9805    8.5887 C   0  0  0  0  0  0  0  0  0  0  0  0
   -0.3495   24.6340    8.8632 C   0  0  0  0  0  0  0  0  0  0  0  0
   -1.2594   24.2972    9.8726 C   0  0  0  0  0  0  0  0  0  0  0  0
   -0.3342   30.2665    7.8895 C   0  0  0  0  0  0  0  0  0  0  0  0
    4.4433   25.5739    8.0326 C   0  0  0  0  0  0  0  0  0  0  0  0
    5.7324   26.0370    6.0581 C   0  0  0  0  0  0  0  0  0  0  0  0
   -1.9440   25.2639   10.6106 C   0  0  0  0  0  0  0  0  0  0  0  0
    3.6529   26.6990    7.7859 C   0  0  0  0  0  0  0  0  0  0  0  0
    4.9438   27.1602    5.8165 C   0  0  0  0  0  0  0  0  0  0  0  0
    5.4791   25.2339    7.1697 C   0  0  0  0  0  0  0  0  0  0  0  0
    2.0067   29.1610    6.9558 C   0  0  0  0  0  0  0  0  0  0  0  0
   -1.6644   26.5762   10.2735 C   0  0  0  0  0  0  0  0  0  0  0  0
    3.8742   27.4856    6.6579 C   0  0  0  0  0  0  0  0  0  0  0  0
    0.0700   29.0059    8.2980 C   0  0  0  0  0  0  0  0  0  0  0  0
   -0.7747   28.2259    9.2555 C   0  0  0  0  0  0  0  0  0  0  0  0
    4.8147   22.5096    7.6515 H   0  0  0  0  0  0  0  0  0  0  0  0
    6.1669   22.0484    8.4424 H   0  0  0  0  0  0  0  0  0  0  0  0
    3.5535   29.2507    5.6980 H   0  0  0  0  0  0  0  0  0  0  0  0
    0.2250   31.8706    6.6942 H   0  0  0  0  0  0  0  0  0  0  0  0
   -1.7940   29.6964   10.3416 H   0  0  0  0  0  0  0  0  0  0  0  0
    0.5073   26.2679    7.8750 H   0  0  0  0  0  0  0  0  0  0  0  0
    0.1326   23.9231    8.3512 H   0  0  0  0  0  0  0  0  0  0  0  0
   -1.4244   23.3312   10.0716 H   0  0  0  0  0  0  0  0  0  0  0  0
   -1.1867   30.6682    8.2239 H   0  0  0  0  0  0  0  0  0  0  0  0
    4.2625   25.0080    8.8371 H   0  0  0  0  0  0  0  0  0  0  0  0
    6.4797   25.8070    5.4347 H   0  0  0  0  0  0  0  0  0  0  0  0
   -2.5922   25.0245   11.3334 H   0  0  0  0  0  0  0  0  0  0  0  0
    2.9224   26.9416    8.4242 H   0  0  0  0  0  0  0  0  0  0  0  0
    5.1455   27.7430    5.0292 H   0  0  0  0  0  0  0  0  0  0  0  0
  1  2  2  0  0  0  0
  1  3  2  0  0  0  0
  1  4  1  0  0  0  0
  1 21  1  0  0  0  0
  5 10  2  0  0  0  0
  5 22  1  0  0  0  0
  6 11  1  0  0  0  0
  6 23  2  0  0  0  0
  7 22  1  0  0  0  0
  7 24  1  0  0  0  0
  8 22  2  0  0  0  0
  8 25  1  0  0  0  0
  9 12  1  0  0  0  0
  9 23  1  0  0  0  0
  9 26  1  0  0  0  0
 10 15  1  0  0  0  0
 11 26  2  0  0  0  0
 12 13  2  0  0  0  0
 13 14  1  0  0  0  0
 14 18  2  0  0  0  0
 15 25  2  0  0  0  0
 16 19  1  0  0  0  0
 16 21  2  0  0  0  0
 17 20  2  0  0  0  0
 17 21  1  0  0  0  0
 18 23  1  0  0  0  0
 19 24  2  0  0  0  0
 20 24  1  0  0  0  0
 25 26  1  0  0  0  0
  4 27  1  0  0  0  0
  4 28  1  0  0  0  0
  7 29  1  0  0  0  0
 10 30  1  0  0  0  0
 11 31  1  0  0  0  0
 12 32  1  0  0  0  0
 13 33  1  0  0  0  0
 14 34  1  0  0  0  0
 15 35  1  0  0  0  0
 16 36  1  0  0  0  0
 17 37  1  0  0  0  0
 18 38  1  0  0  0  0
 19 39  1  0  0  0  0
 20 40  1  0  0  0  0
M  END
$$$$
