CK4_A_500
          05071912473D 1   1.00000     0.00000     0
            
 37 39  0  0  0  0            999 V2000
   -0.1222   27.1900    9.6693 S   0  0  0  0  0  0  0  0  0  0  0  0
    4.7524   21.7404    7.7324 F   0  0  0  0  0  0  0  0  0  0  0  0
    6.7375   22.2213    6.6751 F   0  0  0  0  0  0  0  0  0  0  0  0
    6.5220   22.5777    8.9416 F   0  0  0  0  0  0  0  0  0  0  0  0
    2.5210   30.1584    6.4216 N   0  0  0  0  0  0  0  0  0  0  0  0
   -2.3030   28.3058   10.5636 N   0  0  0  0  0  0  0  0  0  0  0  0
    3.6501   28.0976    6.6837 N   0  0  0  0  0  0  0  0  0  0  0  0
    1.5495   28.6000    7.8356 N   0  0  0  0  0  0  0  0  0  0  0  0
   -1.7579   25.9298   11.3785 C   0  0  0  0  0  0  0  0  0  0  0  0
   -2.4450   30.6175    9.5200 C   0  0  0  0  0  0  0  0  0  0  0  0
    1.4782   31.0211    6.6860 C   0  0  0  0  0  0  0  0  0  0  0  0
    0.3920   30.7281    7.5535 C   0  0  0  0  0  0  0  0  0  0  0  0
    5.4890   26.3128    6.2938 C   0  0  0  0  0  0  0  0  0  0  0  0
    3.5616   25.8434    7.8479 C   0  0  0  0  0  0  0  0  0  0  0  0
    6.0117   24.9962    6.5448 C   0  0  0  0  0  0  0  0  0  0  0  0
    4.0798   24.5518    8.0928 C   0  0  0  0  0  0  0  0  0  0  0  0
   -1.5248   27.1926   10.5992 C   0  0  0  0  0  0  0  0  0  0  0  0
    2.5332   28.9701    7.0000 C   0  0  0  0  0  0  0  0  0  0  0  0
   -0.5011   28.8536    9.0874 C   0  0  0  0  0  0  0  0  0  0  0  0
   -1.7168   29.2586    9.7023 C   0  0  0  0  0  0  0  0  0  0  0  0
    4.2186   26.7544    6.9575 C   0  0  0  0  0  0  0  0  0  0  0  0
    0.4535   29.4152    8.1648 C   0  0  0  0  0  0  0  0  0  0  0  0
    5.3074   24.0987    7.4453 C   0  0  0  0  0  0  0  0  0  0  0  0
    5.8586   22.6157    7.7112 C   0  0  0  0  0  0  0  0  0  0  0  0
    4.2578   28.5766    6.0502 H   0  0  0  0  0  0  0  0  0  0  0  0
   -2.6066   26.0124   11.9011 H   0  0  0  0  0  0  0  0  0  0  0  0
   -1.8288   25.1571   10.7477 H   0  0  0  0  0  0  0  0  0  0  0  0
   -0.9937   25.7792   12.0056 H   0  0  0  0  0  0  0  0  0  0  0  0
   -1.9246   31.1926    8.8887 H   0  0  0  0  0  0  0  0  0  0  0  0
   -3.3598   30.4583    9.1487 H   0  0  0  0  0  0  0  0  0  0  0  0
   -2.5198   31.0770   10.4050 H   0  0  0  0  0  0  0  0  0  0  0  0
    1.4872   31.9142    6.2362 H   0  0  0  0  0  0  0  0  0  0  0  0
   -0.3521   31.3731    7.7277 H   0  0  0  0  0  0  0  0  0  0  0  0
    5.9727   26.9336    5.6768 H   0  0  0  0  0  0  0  0  0  0  0  0
    2.7190   26.1277    8.3053 H   0  0  0  0  0  0  0  0  0  0  0  0
    6.8572   24.6994    6.1010 H   0  0  0  0  0  0  0  0  0  0  0  0
    3.5984   23.9387    8.7192 H   0  0  0  0  0  0  0  0  0  0  0  0
  1 17  1  0  0  0  0
  1 19  1  0  0  0  0
  2 24  1  0  0  0  0
  3 24  1  0  0  0  0
  4 24  1  0  0  0  0
  5 11  2  0  0  0  0
  5 18  1  0  0  0  0
  6 17  2  0  0  0  0
  6 20  1  0  0  0  0
  7 18  1  0  0  0  0
  7 21  1  0  0  0  0
  8 18  2  0  0  0  0
  8 22  1  0  0  0  0
  9 17  1  0  0  0  0
 10 20  1  0  0  0  0
 11 12  1  0  0  0  0
 12 22  2  0  0  0  0
 13 15  1  0  0  0  0
 13 21  2  0  0  0  0
 14 16  2  0  0  0  0
 14 21  1  0  0  0  0
 15 23  2  0  0  0  0
 16 23  1  0  0  0  0
 19 20  2  0  0  0  0
 19 22  1  0  0  0  0
 23 24  1  0  0  0  0
  7 25  1  0  0  0  0
  9 26  1  0  0  0  0
  9 27  1  0  0  0  0
  9 28  1  0  0  0  0
 10 29  1  0  0  0  0
 10 30  1  0  0  0  0
 10 31  1  0  0  0  0
 11 32  1  0  0  0  0
 12 33  1  0  0  0  0
 13 34  1  0  0  0  0
 14 35  1  0  0  0  0
 15 36  1  0  0  0  0
 16 37  1  0  0  0  0
M  END
$$$$
