CK5_A_500
          05071912473D 1   1.00000     0.00000     0
            
 35 37  0  0  0  0            999 V2000
    0.1192   27.3968   10.0284 S   0  0  0  0  0  0  0  0  0  0  0  0
    3.7868   24.5068    9.0690 O   0  0  0  0  0  0  0  0  0  0  0  0
    2.0261   30.7221    6.6857 N   0  0  0  0  0  0  0  0  0  0  0  0
   -2.1790   28.0083   10.8330 N   0  0  0  0  0  0  0  0  0  0  0  0
    3.2236   28.7714    6.4377 N   0  0  0  0  0  0  0  0  0  0  0  0
    1.3056   28.8537    7.8822 N   0  0  0  0  0  0  0  0  0  0  0  0
   -1.2632   25.8852   11.8272 C   0  0  0  0  0  0  0  0  0  0  0  0
   -2.8575   30.1247    9.7208 C   0  0  0  0  0  0  0  0  0  0  0  0
    1.0384   31.4830    7.1970 C   0  0  0  0  0  0  0  0  0  0  0  0
    5.6525   25.9057    6.2131 C   0  0  0  0  0  0  0  0  0  0  0  0
    0.1092   30.9349    8.1120 C   0  0  0  0  0  0  0  0  0  0  0  0
    5.2421   25.0423    7.2603 C   0  0  0  0  0  0  0  0  0  0  0  0
    4.9495   27.1169    5.9850 C   0  0  0  0  0  0  0  0  0  0  0  0
    3.4457   26.5953    7.8498 C   0  0  0  0  0  0  0  0  0  0  0  0
   -1.2241   27.1027   10.9542 C   0  0  0  0  0  0  0  0  0  0  0  0
    2.1229   29.4408    7.0422 C   0  0  0  0  0  0  0  0  0  0  0  0
   -0.5533   28.8546    9.3701 C   0  0  0  0  0  0  0  0  0  0  0  0
    4.1433   25.3775    8.0808 C   0  0  0  0  0  0  0  0  0  0  0  0
   -1.8290   29.0180    9.9390 C   0  0  0  0  0  0  0  0  0  0  0  0
    3.8458   27.4896    6.7877 C   0  0  0  0  0  0  0  0  0  0  0  0
    0.2863   29.5537    8.4435 C   0  0  0  0  0  0  0  0  0  0  0  0
    3.0126   24.7176    9.6658 H   0  0  0  0  0  0  0  0  0  0  0  0
    3.6341   29.2450    5.6585 H   0  0  0  0  0  0  0  0  0  0  0  0
   -2.1348   25.8537   12.3164 H   0  0  0  0  0  0  0  0  0  0  0  0
   -1.1688   25.0661   11.2614 H   0  0  0  0  0  0  0  0  0  0  0  0
   -0.5122   25.9234   12.4864 H   0  0  0  0  0  0  0  0  0  0  0  0
   -2.4989   30.7882    9.0641 H   0  0  0  0  0  0  0  0  0  0  0  0
   -3.7038   29.7278    9.3654 H   0  0  0  0  0  0  0  0  0  0  0  0
   -3.0435   30.5830   10.5899 H   0  0  0  0  0  0  0  0  0  0  0  0
    0.9617   32.4430    6.9275 H   0  0  0  0  0  0  0  0  0  0  0  0
    6.4335   25.6622    5.6380 H   0  0  0  0  0  0  0  0  0  0  0  0
   -0.6300   31.4816    8.5052 H   0  0  0  0  0  0  0  0  0  0  0  0
    5.7360   24.1874    7.4193 H   0  0  0  0  0  0  0  0  0  0  0  0
    5.2401   27.7194    5.2417 H   0  0  0  0  0  0  0  0  0  0  0  0
    2.6677   26.8359    8.4303 H   0  0  0  0  0  0  0  0  0  0  0  0
  1 15  1  0  0  0  0
  1 17  1  0  0  0  0
  2 18  1  0  0  0  0
  3  9  1  0  0  0  0
  3 16  2  0  0  0  0
  4 15  2  0  0  0  0
  4 19  1  0  0  0  0
  5 16  1  0  0  0  0
  5 20  1  0  0  0  0
  6 16  1  0  0  0  0
  6 21  2  0  0  0  0
  7 15  1  0  0  0  0
  8 19  1  0  0  0  0
  9 11  2  0  0  0  0
 10 12  1  0  0  0  0
 10 13  2  0  0  0  0
 11 21  1  0  0  0  0
 12 18  2  0  0  0  0
 13 20  1  0  0  0  0
 14 18  1  0  0  0  0
 14 20  2  0  0  0  0
 17 19  2  0  0  0  0
 17 21  1  0  0  0  0
  2 22  1  0  0  0  0
  5 23  1  0  0  0  0
  7 24  1  0  0  0  0
  7 25  1  0  0  0  0
  7 26  1  0  0  0  0
  8 27  1  0  0  0  0
  8 28  1  0  0  0  0
  8 29  1  0  0  0  0
  9 30  1  0  0  0  0
 10 31  1  0  0  0  0
 11 32  1  0  0  0  0
 12 33  1  0  0  0  0
 13 34  1  0  0  0  0
 14 35  1  0  0  0  0
M  END
$$$$
