I1P_A_1300
          05071912473D 1   1.00000     0.00000     0
            
 56 59  0  0  0  0            999 V2000
    6.5685   23.8865    7.2410 S   0  0  0  0  0  0  0  0  0  0  0  0
    7.7435   24.2866    8.2298 O   0  0  0  0  0  0  0  0  0  0  0  0
    7.1642   23.3050    5.8954 O   0  0  0  0  0  0  0  0  0  0  0  0
    5.5766   22.6925    8.0261 N   0  0  0  0  0  0  0  0  0  0  0  0
   -2.4238   30.1143    9.6959 N   0  0  0  0  0  0  0  0  0  0  0  0
    2.0627   30.8396    6.5692 N   0  0  0  0  0  0  0  0  0  0  0  0
   -1.0785   26.7457   10.5203 N   0  0  0  0  0  0  0  0  0  0  0  0
    3.3236   28.8217    6.1635 N   0  0  0  0  0  0  0  0  0  0  0  0
    1.4896   28.7927    7.6282 N   0  0  0  0  0  0  0  0  0  0  0  0
   -1.6262   28.9374    9.7024 N   0  0  0  0  0  0  0  0  0  0  0  0
    5.3081   18.2023    7.9194 N   0  0  0  0  0  0  0  0  0  0  0  0
    5.0109   17.4775    6.6531 C   0  0  0  0  0  0  0  0  0  0  0  0
    4.2628   17.8989    8.9562 C   0  0  0  0  0  0  0  0  0  0  0  0
    4.6798   22.0080    7.0679 C   0  0  0  0  0  0  0  0  0  0  0  0
   -3.5714   30.1557   10.3615 C   0  0  0  0  0  0  0  0  0  0  0  0
    1.0533   31.4670    7.2000 C   0  0  0  0  0  0  0  0  0  0  0  0
   -0.0772   27.2471    9.6687 C   0  0  0  0  0  0  0  0  0  0  0  0
    5.5517   19.6814    7.7511 C   0  0  0  0  0  0  0  0  0  0  0  0
    4.3111   20.6051    7.5673 C   0  0  0  0  0  0  0  0  0  0  0  0
   -3.9989   29.0826   11.1348 C   0  0  0  0  0  0  0  0  0  0  0  0
    0.1928   30.7740    8.0950 C   0  0  0  0  0  0  0  0  0  0  0  0
    4.5435   25.6123    7.8119 C   0  0  0  0  0  0  0  0  0  0  0  0
    5.8827   26.0898    5.7888 C   0  0  0  0  0  0  0  0  0  0  0  0
   -3.2619   27.9129   11.2856 C   0  0  0  0  0  0  0  0  0  0  0  0
    3.7806   26.7663    7.5712 C   0  0  0  0  0  0  0  0  0  0  0  0
    5.1106   27.2508    5.5505 C   0  0  0  0  0  0  0  0  0  0  0  0
    2.2450   29.5355    6.8025 C   0  0  0  0  0  0  0  0  0  0  0  0
    5.5905   25.2886    6.9233 C   0  0  0  0  0  0  0  0  0  0  0  0
   -1.9137   27.8273   10.4990 C   0  0  0  0  0  0  0  0  0  0  0  0
    4.0567   27.6075    6.4402 C   0  0  0  0  0  0  0  0  0  0  0  0
    0.4513   29.3689    8.2968 C   0  0  0  0  0  0  0  0  0  0  0  0
   -0.3618   28.5904    9.1796 C   0  0  0  0  0  0  0  0  0  0  0  0
    5.0208   23.1422    8.7252 H   0  0  0  0  0  0  0  0  0  0  0  0
    3.6393   29.2754    5.3302 H   0  0  0  0  0  0  0  0  0  0  0  0
    5.7143   17.6895    5.9747 H   0  0  0  0  0  0  0  0  0  0  0  0
    5.0016   16.4927    6.8269 H   0  0  0  0  0  0  0  0  0  0  0  0
    4.1172   17.7633    6.3072 H   0  0  0  0  0  0  0  0  0  0  0  0
    4.4764   18.3924    9.7993 H   0  0  0  0  0  0  0  0  0  0  0  0
    3.3661   18.1865    8.6196 H   0  0  0  0  0  0  0  0  0  0  0  0
    4.2505   16.9159    9.1393 H   0  0  0  0  0  0  0  0  0  0  0  0
    5.1428   21.9297    6.1850 H   0  0  0  0  0  0  0  0  0  0  0  0
    3.8443   22.5467    6.9595 H   0  0  0  0  0  0  0  0  0  0  0  0
   -4.1404   30.9761   10.3054 H   0  0  0  0  0  0  0  0  0  0  0  0
    0.9051   32.4423    7.0358 H   0  0  0  0  0  0  0  0  0  0  0  0
    0.7457   26.7343    9.4239 H   0  0  0  0  0  0  0  0  0  0  0  0
    6.1326   19.7983    6.9456 H   0  0  0  0  0  0  0  0  0  0  0  0
    6.0412   19.9975    8.5638 H   0  0  0  0  0  0  0  0  0  0  0  0
    3.6939   20.1822    6.9038 H   0  0  0  0  0  0  0  0  0  0  0  0
    3.8449   20.6922    8.4477 H   0  0  0  0  0  0  0  0  0  0  0  0
   -4.8783   29.1552   11.6052 H   0  0  0  0  0  0  0  0  0  0  0  0
   -0.5580   31.2396    8.5636 H   0  0  0  0  0  0  0  0  0  0  0  0
    4.3480   25.0293    8.6005 H   0  0  0  0  0  0  0  0  0  0  0  0
    6.6238   25.8371    5.1668 H   0  0  0  0  0  0  0  0  0  0  0  0
   -3.5785   27.1642   11.8680 H   0  0  0  0  0  0  0  0  0  0  0  0
    3.0361   27.0052    8.1946 H   0  0  0  0  0  0  0  0  0  0  0  0
    5.3054   27.8236    4.7543 H   0  0  0  0  0  0  0  0  0  0  0  0
  1  2  2  0  0  0  0
  1  3  2  0  0  0  0
  1  4  1  0  0  0  0
  1 28  1  0  0  0  0
  4 14  1  0  0  0  0
  5 10  1  0  0  0  0
  5 15  2  0  0  0  0
  6 16  1  0  0  0  0
  6 27  2  0  0  0  0
  7 17  1  0  0  0  0
  7 29  2  0  0  0  0
  8 27  1  0  0  0  0
  8 30  1  0  0  0  0
  9 27  1  0  0  0  0
  9 31  2  0  0  0  0
 10 29  1  0  0  0  0
 10 32  1  0  0  0  0
 11 12  1  0  0  0  0
 11 13  1  0  0  0  0
 11 18  1  0  0  0  0
 14 19  1  0  0  0  0
 15 20  1  0  0  0  0
 16 21  2  0  0  0  0
 17 32  2  0  0  0  0
 18 19  1  0  0  0  0
 20 24  2  0  0  0  0
 21 31  1  0  0  0  0
 22 25  1  0  0  0  0
 22 28  2  0  0  0  0
 23 26  2  0  0  0  0
 23 28  1  0  0  0  0
 24 29  1  0  0  0  0
 25 30  2  0  0  0  0
 26 30  1  0  0  0  0
 31 32  1  0  0  0  0
  4 33  1  0  0  0  0
  8 34  1  0  0  0  0
 12 35  1  0  0  0  0
 12 36  1  0  0  0  0
 12 37  1  0  0  0  0
 13 38  1  0  0  0  0
 13 39  1  0  0  0  0
 13 40  1  0  0  0  0
 14 41  1  0  0  0  0
 14 42  1  0  0  0  0
 15 43  1  0  0  0  0
 16 44  1  0  0  0  0
 17 45  1  0  0  0  0
 18 46  1  0  0  0  0
 18 47  1  0  0  0  0
 19 48  1  0  0  0  0
 19 49  1  0  0  0  0
 20 50  1  0  0  0  0
 21 51  1  0  0  0  0
 22 52  1  0  0  0  0
 23 53  1  0  0  0  0
 24 54  1  0  0  0  0
 25 55  1  0  0  0  0
 26 56  1  0  0  0  0
M  END
$$$$
