PVB_B_1287
          05071912473D 1   1.00000     0.00000     0
            
 55 57  0  0  0  0            999 V2000
    5.9780   24.1464    8.6726 Cl  0  0  0  0  0  0  0  0  0  0  0  0
    2.0947   24.3543   11.5607 O   0  0  0  0  0  0  0  0  0  0  0  0
    7.1282   22.9215    4.8226 O   0  0  0  0  0  0  0  0  0  0  0  0
    6.3237   22.1129    6.7269 O   0  0  0  0  0  0  0  0  0  0  0  0
    1.7508   30.3314    6.4275 N   0  0  0  0  0  0  0  0  0  0  0  0
    1.9498   26.8766    7.7432 N   0  0  0  0  0  0  0  0  0  0  0  0
   -0.0620   27.9321    8.3737 N   0  0  0  0  0  0  0  0  0  0  0  0
    0.3460   25.7629    9.0523 N   0  0  0  0  0  0  0  0  0  0  0  0
    3.6472   27.8890    6.4560 N   0  0  0  0  0  0  0  0  0  0  0  0
   -0.2841   30.2513    7.5055 N   0  0  0  0  0  0  0  0  0  0  0  0
   -2.7219   29.6277    7.6961 C   0  0  0  0  0  0  0  0  0  0  0  0
   -1.5462   30.8852    9.5379 C   0  0  0  0  0  0  0  0  0  0  0  0
   -0.2915   22.9788    8.1371 C   0  0  0  0  0  0  0  0  0  0  0  0
   -0.5808   23.4085   10.5733 C   0  0  0  0  0  0  0  0  0  0  0  0
    0.5760   30.9997    6.7604 C   0  0  0  0  0  0  0  0  0  0  0  0
    2.2551   25.0592   10.3481 C   0  0  0  0  0  0  0  0  0  0  0  0
    4.5380   26.1930    5.0995 C   0  0  0  0  0  0  0  0  0  0  0  0
    5.2371   24.9933    4.9365 C   0  0  0  0  0  0  0  0  0  0  0  0
    4.7849   26.0725    7.5383 C   0  0  0  0  0  0  0  0  0  0  0  0
    0.7540   26.8631    8.3860 C   0  0  0  0  0  0  0  0  0  0  0  0
    6.4376   23.0200    5.8603 C   0  0  0  0  0  0  0  0  0  0  0  0
    2.4257   27.9507    7.0526 C   0  0  0  0  0  0  0  0  0  0  0  0
    5.4770   24.8578    7.4337 C   0  0  0  0  0  0  0  0  0  0  0  0
    0.3624   29.0951    7.6417 C   0  0  0  0  0  0  0  0  0  0  0  0
    4.3233   26.7241    6.3767 C   0  0  0  0  0  0  0  0  0  0  0  0
   -1.6249   30.6450    8.0361 C   0  0  0  0  0  0  0  0  0  0  0  0
    1.2457   24.6468    9.2523 C   0  0  1  0  0  0  0  0  0  0  0  0
    1.6589   29.1179    6.9612 C   0  0  0  0  0  0  0  0  0  0  0  0
    0.4361   23.3473    9.4304 C   0  0  0  0  0  0  0  0  0  0  0  0
    5.7049   24.3055    6.0657 C   0  0  0  0  0  0  0  0  0  0  0  0
    2.7760   24.6688   12.2217 H   0  0  0  0  0  0  0  0  0  0  0  0
    7.1724   23.6839    4.1771 H   0  0  0  0  0  0  0  0  0  0  0  0
   -0.5863   25.7182    9.4112 H   0  0  0  0  0  0  0  0  0  0  0  0
    4.0497   28.7194    6.0706 H   0  0  0  0  0  0  0  0  0  0  0  0
   -3.5940   29.9394    8.0733 H   0  0  0  0  0  0  0  0  0  0  0  0
   -2.8002   29.5412    6.7030 H   0  0  0  0  0  0  0  0  0  0  0  0
   -2.4866   28.7394    8.0906 H   0  0  0  0  0  0  0  0  0  0  0  0
   -2.4480   31.1477    9.8812 H   0  0  0  0  0  0  0  0  0  0  0  0
   -1.2467   30.0473    9.9943 H   0  0  0  0  0  0  0  0  0  0  0  0
   -0.8922   31.6184    9.7244 H   0  0  0  0  0  0  0  0  0  0  0  0
    0.3662   22.9367    7.3850 H   0  0  0  0  0  0  0  0  0  0  0  0
   -0.7322   22.0877    8.2449 H   0  0  0  0  0  0  0  0  0  0  0  0
   -0.9844   23.6712    7.9357 H   0  0  0  0  0  0  0  0  0  0  0  0
   -0.1127   23.6491   11.4235 H   0  0  0  0  0  0  0  0  0  0  0  0
   -1.2731   24.0999   10.3668 H   0  0  0  0  0  0  0  0  0  0  0  0
   -1.0209   22.5165   10.6760 H   0  0  0  0  0  0  0  0  0  0  0  0
    0.3821   31.9396    6.4793 H   0  0  0  0  0  0  0  0  0  0  0  0
    3.1795   24.8917   10.0052 H   0  0  0  0  0  0  0  0  0  0  0  0
    2.1398   26.0353   10.5325 H   0  0  0  0  0  0  0  0  0  0  0  0
    4.1883   26.6759    4.2966 H   0  0  0  0  0  0  0  0  0  0  0  0
    5.4024   24.6278    4.0205 H   0  0  0  0  0  0  0  0  0  0  0  0
    4.6185   26.4769    8.4376 H   0  0  0  0  0  0  0  0  0  0  0  0
   -1.8755   31.5122    7.6058 H   0  0  0  0  0  0  0  0  0  0  0  0
    1.7680   24.5449    8.4057 H   0  0  0  0  0  0  0  0  0  0  0  0
    1.0818   22.6121    9.6365 H   0  0  0  0  0  0  0  0  0  0  0  0
  1 23  1  0  0  0  0
  2 16  1  0  0  0  0
  3 21  1  0  0  0  0
  4 21  2  0  0  0  0
  5 15  2  0  0  0  0
  5 28  1  0  0  0  0
  6 20  2  0  0  0  0
  6 22  1  0  0  0  0
  7 20  1  0  0  0  0
  7 24  2  0  0  0  0
  8 20  1  0  0  0  0
  8 27  1  0  0  0  0
  9 22  1  0  0  0  0
  9 25  1  0  0  0  0
 10 15  1  0  0  0  0
 10 24  1  0  0  0  0
 10 26  1  0  0  0  0
 11 26  1  0  0  0  0
 12 26  1  0  0  0  0
 13 29  1  0  0  0  0
 14 29  1  0  0  0  0
 16 27  1  0  0  0  0
 17 18  1  0  0  0  0
 17 25  2  0  0  0  0
 18 30  2  0  0  0  0
 19 23  2  0  0  0  0
 19 25  1  0  0  0  0
 21 30  1  0  0  0  0
 22 28  2  0  0  0  0
 23 30  1  0  0  0  0
 24 28  1  0  0  0  0
 27 29  1  0  0  0  0
  2 31  1  0  0  0  0
  3 32  1  0  0  0  0
  8 33  1  0  0  0  0
  9 34  1  0  0  0  0
 11 35  1  0  0  0  0
 11 36  1  0  0  0  0
 11 37  1  0  0  0  0
 12 38  1  0  0  0  0
 12 39  1  0  0  0  0
 12 40  1  0  0  0  0
 13 41  1  0  0  0  0
 13 42  1  0  0  0  0
 13 43  1  0  0  0  0
 14 44  1  0  0  0  0
 14 45  1  0  0  0  0
 14 46  1  0  0  0  0
 15 47  1  0  0  0  0
 16 48  1  0  0  0  0
 16 49  1  0  0  0  0
 17 50  1  0  0  0  0
 18 51  1  0  0  0  0
 19 52  1  0  0  0  0
 26 53  1  0  0  0  0
 27 54  1  0  0  0  0
 29 55  1  0  0  0  0
M  END
$$$$
