PVB_A_1287
          05071912473D 1   1.00000     0.00000     0
            
 55 57  0  0  0  0            999 V2000
    5.5402   23.5779    8.3582 Cl  0  0  0  0  0  0  0  0  0  0  0  0
    1.9164   25.0038   11.3332 O   0  0  0  0  0  0  0  0  0  0  0  0
    7.6503   22.9386    4.9146 O   0  0  0  0  0  0  0  0  0  0  0  0
    6.1797   21.8453    6.0404 O   0  0  0  0  0  0  0  0  0  0  0  0
    1.8489   30.1378    6.4898 N   0  0  0  0  0  0  0  0  0  0  0  0
    1.9798   26.6486    7.8185 N   0  0  0  0  0  0  0  0  0  0  0  0
   -0.0271   27.7637    8.5114 N   0  0  0  0  0  0  0  0  0  0  0  0
    0.3775   25.5168    9.1644 N   0  0  0  0  0  0  0  0  0  0  0  0
    3.6874   27.6784    6.4628 N   0  0  0  0  0  0  0  0  0  0  0  0
   -0.1275   30.1574    7.6140 N   0  0  0  0  0  0  0  0  0  0  0  0
   -2.4666   29.6483    7.6524 C   0  0  0  0  0  0  0  0  0  0  0  0
   -1.5922   30.9528    9.5472 C   0  0  0  0  0  0  0  0  0  0  0  0
   -0.8219   23.1092    8.4041 C   0  0  0  0  0  0  0  0  0  0  0  0
    1.0180   21.9037    9.7905 C   0  0  0  0  0  0  0  0  0  0  0  0
    0.7495   30.8584    6.8340 C   0  0  0  0  0  0  0  0  0  0  0  0
    2.4340   24.4109   10.1717 C   0  0  0  0  0  0  0  0  0  0  0  0
    4.8851   26.2334    4.9730 C   0  0  0  0  0  0  0  0  0  0  0  0
    5.5959   25.0642    4.7431 C   0  0  0  0  0  0  0  0  0  0  0  0
    4.6394   25.6975    7.3339 C   0  0  0  0  0  0  0  0  0  0  0  0
    0.7532   26.6424    8.4810 C   0  0  0  0  0  0  0  0  0  0  0  0
    6.6008   22.9168    5.5790 C   0  0  0  0  0  0  0  0  0  0  0  0
    2.4748   27.7153    7.1155 C   0  0  0  0  0  0  0  0  0  0  0  0
    5.3261   24.5051    7.1703 C   0  0  0  0  0  0  0  0  0  0  0  0
    0.4298   28.9233    7.7610 C   0  0  0  0  0  0  0  0  0  0  0  0
    4.4254   26.5472    6.2682 C   0  0  0  0  0  0  0  0  0  0  0  0
   -1.4411   30.6928    8.0541 C   0  0  0  0  0  0  0  0  0  0  0  0
    1.3096   24.3906    9.1198 C   0  0  1  0  0  0  0  0  0  0  0  0
    1.7123   28.8990    7.0361 C   0  0  0  0  0  0  0  0  0  0  0  0
    0.6695   23.0205    8.8145 C   0  0  0  0  0  0  0  0  0  0  0  0
    5.8451   24.1818    5.8114 C   0  0  0  0  0  0  0  0  0  0  0  0
    2.6256   25.0316   12.0377 H   0  0  0  0  0  0  0  0  0  0  0  0
    7.9890   23.8030    4.5431 H   0  0  0  0  0  0  0  0  0  0  0  0
   -0.4861   25.4676    9.6662 H   0  0  0  0  0  0  0  0  0  0  0  0
    4.0517   28.5392    6.1075 H   0  0  0  0  0  0  0  0  0  0  0  0
   -3.3787   29.9547    7.9247 H   0  0  0  0  0  0  0  0  0  0  0  0
   -2.4404   29.5194    6.6611 H   0  0  0  0  0  0  0  0  0  0  0  0
   -2.2563   28.7827    8.1068 H   0  0  0  0  0  0  0  0  0  0  0  0
   -2.5079   31.3093    9.7325 H   0  0  0  0  0  0  0  0  0  0  0  0
   -1.4592   30.0983   10.0494 H   0  0  0  0  0  0  0  0  0  0  0  0
   -0.9087   31.6214    9.8400 H   0  0  0  0  0  0  0  0  0  0  0  0
   -0.9473   23.8687    7.7658 H   0  0  0  0  0  0  0  0  0  0  0  0
   -1.0979   22.2548    7.9640 H   0  0  0  0  0  0  0  0  0  0  0  0
   -1.3830   23.2615    9.2178 H   0  0  0  0  0  0  0  0  0  0  0  0
    1.9972   21.9303    9.9917 H   0  0  0  0  0  0  0  0  0  0  0  0
    0.5002   22.0272   10.6370 H   0  0  0  0  0  0  0  0  0  0  0  0
    0.7853   21.0205    9.3833 H   0  0  0  0  0  0  0  0  0  0  0  0
    0.5976   31.8040    6.5464 H   0  0  0  0  0  0  0  0  0  0  0  0
    2.7331   23.4774   10.3695 H   0  0  0  0  0  0  0  0  0  0  0  0
    3.2089   24.9444    9.8326 H   0  0  0  0  0  0  0  0  0  0  0  0
    4.6977   26.8578    4.2147 H   0  0  0  0  0  0  0  0  0  0  0  0
    5.9288   24.8498    3.8249 H   0  0  0  0  0  0  0  0  0  0  0  0
    4.2936   25.9460    8.2386 H   0  0  0  0  0  0  0  0  0  0  0  0
   -1.6291   31.5398    7.5568 H   0  0  0  0  0  0  0  0  0  0  0  0
    1.8140   24.5744    8.2761 H   0  0  0  0  0  0  0  0  0  0  0  0
    1.1239   22.7376    7.9698 H   0  0  0  0  0  0  0  0  0  0  0  0
  1 23  1  0  0  0  0
  2 16  1  0  0  0  0
  3 21  1  0  0  0  0
  4 21  2  0  0  0  0
  5 15  2  0  0  0  0
  5 28  1  0  0  0  0
  6 20  2  0  0  0  0
  6 22  1  0  0  0  0
  7 20  1  0  0  0  0
  7 24  2  0  0  0  0
  8 20  1  0  0  0  0
  8 27  1  0  0  0  0
  9 22  1  0  0  0  0
  9 25  1  0  0  0  0
 10 15  1  0  0  0  0
 10 24  1  0  0  0  0
 10 26  1  0  0  0  0
 11 26  1  0  0  0  0
 12 26  1  0  0  0  0
 13 29  1  0  0  0  0
 14 29  1  0  0  0  0
 16 27  1  0  0  0  0
 17 18  2  0  0  0  0
 17 25  1  0  0  0  0
 18 30  1  0  0  0  0
 19 23  1  0  0  0  0
 19 25  2  0  0  0  0
 21 30  1  0  0  0  0
 22 28  2  0  0  0  0
 23 30  2  0  0  0  0
 24 28  1  0  0  0  0
 27 29  1  0  0  0  0
  2 31  1  0  0  0  0
  3 32  1  0  0  0  0
  8 33  1  0  0  0  0
  9 34  1  0  0  0  0
 11 35  1  0  0  0  0
 11 36  1  0  0  0  0
 11 37  1  0  0  0  0
 12 38  1  0  0  0  0
 12 39  1  0  0  0  0
 12 40  1  0  0  0  0
 13 41  1  0  0  0  0
 13 42  1  0  0  0  0
 13 43  1  0  0  0  0
 14 44  1  0  0  0  0
 14 45  1  0  0  0  0
 14 46  1  0  0  0  0
 15 47  1  0  0  0  0
 16 48  1  0  0  0  0
 16 49  1  0  0  0  0
 17 50  1  0  0  0  0
 18 51  1  0  0  0  0
 19 52  1  0  0  0  0
 26 53  1  0  0  0  0
 27 54  1  0  0  0  0
 29 55  1  0  0  0  0
M  END
$$$$
