3FP_A_299
          05071912473D 1   1.00000     0.00000     0
            
 56 58  0  0  0  0            999 V2000
    0.8690   28.2526   11.0789 F   0  0  0  0  0  0  0  0  0  0  0  0
   -3.4552   23.5724   11.5291 F   0  0  0  0  0  0  0  0  0  0  0  0
   -4.1096   24.7433    9.7478 F   0  0  0  0  0  0  0  0  0  0  0  0
   -2.5034   23.1401    9.4711 F   0  0  0  0  0  0  0  0  0  0  0  0
    6.1074   21.1406    8.7819 O   0  0  0  0  0  0  0  0  0  0  0  0
    4.9374   23.0077    7.6626 O   0  0  0  0  0  0  0  0  0  0  0  0
    1.8327   30.1294    6.7050 N   0  0  0  0  0  0  0  0  0  0  0  0
   -0.1690   30.3326    7.8537 N   0  0  0  0  0  0  0  0  0  0  0  0
    3.1679   28.2188    6.6164 N   0  0  0  0  0  0  0  0  0  0  0  0
   -1.1156   28.5520    9.1046 N   0  0  0  0  0  0  0  0  0  0  0  0
    6.8577   20.1870    5.8161 N   0  0  0  0  0  0  0  0  0  0  0  0
    8.0735   20.7711    6.4040 C   0  0  0  0  0  0  0  0  0  0  0  0
    7.3611   19.0106    5.0840 C   0  0  0  0  0  0  0  0  0  0  0  0
    0.7788   30.8414    7.0837 C   0  0  0  0  0  0  0  0  0  0  0  0
    4.5218   21.8126    6.9909 C   0  0  0  0  0  0  0  0  0  0  0  0
    5.9813   19.6380    6.8776 C   0  0  0  0  0  0  0  0  0  0  0  0
   -0.0053   26.1231   11.6903 C   0  0  0  0  0  0  0  0  0  0  0  0
    4.7679   24.8844    6.0818 C   0  0  0  0  0  0  0  0  0  0  0  0
    3.8259   24.9851    8.2948 C   0  0  0  0  0  0  0  0  0  0  0  0
    4.3148   26.1904    5.8724 C   0  0  0  0  0  0  0  0  0  0  0  0
    3.3684   26.2752    8.0914 C   0  0  0  0  0  0  0  0  0  0  0  0
   -0.9430   25.1112   11.5144 C   0  0  0  0  0  0  0  0  0  0  0  0
    1.0243   28.2831    7.9039 C   0  0  0  0  0  0  0  0  0  0  0  0
   -1.9777   26.3917    9.7592 C   0  0  0  0  0  0  0  0  0  0  0  0
   -0.0489   27.2719   10.9021 C   0  0  0  0  0  0  0  0  0  0  0  0
    2.0069   28.8665    7.0799 C   0  0  0  0  0  0  0  0  0  0  0  0
   -0.0847   29.0552    8.2977 C   0  0  0  0  0  0  0  0  0  0  0  0
    5.2156   20.6540    7.7575 C   0  0  1  0  0  0  0  0  0  0  0  0
    4.4982   24.2625    7.3062 C   0  0  0  0  0  0  0  0  0  0  0  0
    3.6005   26.8927    6.8615 C   0  0  0  0  0  0  0  0  0  0  0  0
   -1.0371   27.4101    9.9161 C   0  0  0  0  0  0  0  0  0  0  0  0
   -1.9366   25.2408   10.5422 C   0  0  0  0  0  0  0  0  0  0  0  0
   -2.9887   24.1502   10.3302 C   0  0  0  0  0  0  0  0  0  0  0  0
    6.5321   20.3655    9.2498 H   0  0  0  0  0  0  0  0  0  0  0  0
    3.7679   28.7692    6.0358 H   0  0  0  0  0  0  0  0  0  0  0  0
   -1.9823   29.0507    9.1013 H   0  0  0  0  0  0  0  0  0  0  0  0
    7.8312   21.5874    6.9284 H   0  0  0  0  0  0  0  0  0  0  0  0
    8.5056   20.1023    7.0091 H   0  0  0  0  0  0  0  0  0  0  0  0
    8.7100   21.0205    5.6742 H   0  0  0  0  0  0  0  0  0  0  0  0
    6.5967   18.5400    4.6433 H   0  0  0  0  0  0  0  0  0  0  0  0
    8.0163   19.3060    4.3886 H   0  0  0  0  0  0  0  0  0  0  0  0
    7.8119   18.3878    5.7235 H   0  0  0  0  0  0  0  0  0  0  0  0
    0.6988   31.7902    6.7782 H   0  0  0  0  0  0  0  0  0  0  0  0
    4.8160   21.8268    6.0353 H   0  0  0  0  0  0  0  0  0  0  0  0
    3.5274   21.7147    7.0322 H   0  0  0  0  0  0  0  0  0  0  0  0
    6.5531   19.0856    7.4842 H   0  0  0  0  0  0  0  0  0  0  0  0
    5.3026   19.0522    6.4345 H   0  0  0  0  0  0  0  0  0  0  0  0
    0.7053   26.0258   12.3871 H   0  0  0  0  0  0  0  0  0  0  0  0
    5.2764   24.4025    5.3683 H   0  0  0  0  0  0  0  0  0  0  0  0
    3.6693   24.5537    9.1833 H   0  0  0  0  0  0  0  0  0  0  0  0
    4.5030   26.6370    4.9977 H   0  0  0  0  0  0  0  0  0  0  0  0
    2.8779   26.7587    8.8164 H   0  0  0  0  0  0  0  0  0  0  0  0
   -0.9056   24.2905   12.0845 H   0  0  0  0  0  0  0  0  0  0  0  0
    1.1136   27.3336    8.2048 H   0  0  0  0  0  0  0  0  0  0  0  0
   -2.6960   26.4902    9.0705 H   0  0  0  0  0  0  0  0  0  0  0  0
    4.4929   20.1438    8.2237 H   0  0  0  0  0  0  0  0  0  0  0  0
  1 25  1  0  0  0  0
  2 33  1  0  0  0  0
  3 33  1  0  0  0  0
  4 33  1  0  0  0  0
  5 28  1  0  0  0  0
  6 15  1  0  0  0  0
  6 29  1  0  0  0  0
  7 14  2  0  0  0  0
  7 26  1  0  0  0  0
  8 14  1  0  0  0  0
  8 27  2  0  0  0  0
  9 26  1  0  0  0  0
  9 30  1  0  0  0  0
 10 27  1  0  0  0  0
 10 31  1  0  0  0  0
 11 12  1  0  0  0  0
 11 13  1  0  0  0  0
 11 16  1  0  0  0  0
 15 28  1  0  0  0  0
 16 28  1  0  0  0  0
 17 22  2  0  0  0  0
 17 25  1  0  0  0  0
 18 20  1  0  0  0  0
 18 29  2  0  0  0  0
 19 21  2  0  0  0  0
 19 29  1  0  0  0  0
 20 30  2  0  0  0  0
 21 30  1  0  0  0  0
 22 32  1  0  0  0  0
 23 26  2  0  0  0  0
 23 27  1  0  0  0  0
 24 31  1  0  0  0  0
 24 32  2  0  0  0  0
 25 31  2  0  0  0  0
 32 33  1  0  0  0  0
  5 34  1  0  0  0  0
  9 35  1  0  0  0  0
 10 36  1  0  0  0  0
 12 37  1  0  0  0  0
 12 38  1  0  0  0  0
 12 39  1  0  0  0  0
 13 40  1  0  0  0  0
 13 41  1  0  0  0  0
 13 42  1  0  0  0  0
 14 43  1  0  0  0  0
 15 44  1  0  0  0  0
 15 45  1  0  0  0  0
 16 46  1  0  0  0  0
 16 47  1  0  0  0  0
 17 48  1  0  0  0  0
 18 49  1  0  0  0  0
 19 50  1  0  0  0  0
 20 51  1  0  0  0  0
 21 52  1  0  0  0  0
 22 53  1  0  0  0  0
 23 54  1  0  0  0  0
 24 55  1  0  0  0  0
 28 56  1  0  0  0  0
M  END
$$$$
