OLO_C_1299
          05071912473D 1   1.00000     0.00000     0
            
 40 42  0  0  0  0            999 V2000
    2.1101   22.8567   10.6877 O   0  0  0  0  0  0  0  0  0  0  0  0
    1.9813   30.6738    6.5297 N   0  0  0  0  0  0  0  0  0  0  0  0
    2.3803   27.2076    7.7769 N   0  0  0  0  0  0  0  0  0  0  0  0
    0.2279   28.0024    8.2209 N   0  0  0  0  0  0  0  0  0  0  0  0
    0.8753   25.8429    9.0458 N   0  0  0  0  0  0  0  0  0  0  0  0
    3.9395   28.1953    6.4352 N   0  0  0  0  0  0  0  0  0  0  0  0
   -0.0178   30.3906    7.5701 N   0  0  0  0  0  0  0  0  0  0  0  0
   -1.3919   30.6676    8.1779 C   0  0  0  0  0  0  0  0  0  0  0  0
    0.8377   31.2572    6.8761 C   0  0  0  0  0  0  0  0  0  0  0  0
    2.0928   24.2917   10.8984 C   0  0  0  0  0  0  0  0  0  0  0  0
    2.0193   24.9319    9.4696 C   0  0  0  0  0  0  0  0  0  0  0  0
    4.9213   27.1714    6.8559 C   0  0  0  0  0  0  0  0  0  0  0  0
    5.0023   23.6746    4.4959 C   0  0  0  0  0  0  0  0  0  0  0  0
    4.5739   23.5777    5.8106 C   0  0  0  0  0  0  0  0  0  0  0  0
    5.3571   24.9687    3.9559 C   0  0  0  0  0  0  0  0  0  0  0  0
    4.5169   24.7799    6.5758 C   0  0  0  0  0  0  0  0  0  0  0  0
    5.2852   26.1231    4.7406 C   0  0  0  0  0  0  0  0  0  0  0  0
    1.1609   27.0173    8.2907 C   0  0  0  0  0  0  0  0  0  0  0  0
    2.7507   28.2660    7.0864 C   0  0  0  0  0  0  0  0  0  0  0  0
    0.6702   29.1890    7.6499 C   0  0  0  0  0  0  0  0  0  0  0  0
    1.8846   29.3754    7.0508 C   0  0  0  0  0  0  0  0  0  0  0  0
    4.8846   26.0126    6.0142 C   0  0  0  0  0  0  0  0  0  0  0  0
    3.0181   22.5461   10.6712 H   0  0  0  0  0  0  0  0  0  0  0  0
   -0.0598   25.5803    9.3186 H   0  0  0  0  0  0  0  0  0  0  0  0
    4.1905   28.8084    5.6741 H   0  0  0  0  0  0  0  0  0  0  0  0
   -1.7408   29.8343    8.6067 H   0  0  0  0  0  0  0  0  0  0  0  0
   -1.3127   31.3886    8.8662 H   0  0  0  0  0  0  0  0  0  0  0  0
   -2.0215   30.9611    7.4586 H   0  0  0  0  0  0  0  0  0  0  0  0
    0.6130   32.2084    6.6649 H   0  0  0  0  0  0  0  0  0  0  0  0
    2.9251   24.5847   11.3690 H   0  0  0  0  0  0  0  0  0  0  0  0
    1.2939   24.5547   11.4394 H   0  0  0  0  0  0  0  0  0  0  0  0
    2.8570   25.4669    9.3603 H   0  0  0  0  0  0  0  0  0  0  0  0
    2.0235   24.1699    8.8221 H   0  0  0  0  0  0  0  0  0  0  0  0
    4.7166   26.8947    7.7948 H   0  0  0  0  0  0  0  0  0  0  0  0
    5.8382   27.5688    6.8179 H   0  0  0  0  0  0  0  0  0  0  0  0
    5.0656   22.8560    3.9251 H   0  0  0  0  0  0  0  0  0  0  0  0
    4.3145   22.6974    6.2079 H   0  0  0  0  0  0  0  0  0  0  0  0
    5.6589   25.0386    3.0051 H   0  0  0  0  0  0  0  0  0  0  0  0
    4.2104   24.7441    7.5269 H   0  0  0  0  0  0  0  0  0  0  0  0
    5.5283   27.0147    4.3586 H   0  0  0  0  0  0  0  0  0  0  0  0
  1 10  1  0  0  0  0
  1 23  1  0  0  0  0
  2  9  2  0  0  0  0
  2 21  1  0  0  0  0
  3 18  2  0  0  0  0
  3 19  1  0  0  0  0
  4 18  1  0  0  0  0
  4 20  2  0  0  0  0
  5 11  1  0  0  0  0
  5 18  1  0  0  0  0
  5 24  1  0  0  0  0
  6 12  1  0  0  0  0
  6 19  1  0  0  0  0
  6 25  1  0  0  0  0
  7  8  1  0  0  0  0
  7  9  1  0  0  0  0
  7 20  1  0  0  0  0
 10 11  1  0  0  0  0
 12 22  1  0  0  0  0
 13 14  2  0  0  0  0
 13 15  1  0  0  0  0
 14 16  1  0  0  0  0
 15 17  2  0  0  0  0
 16 22  2  0  0  0  0
 17 22  1  0  0  0  0
 19 21  2  0  0  0  0
 20 21  1  0  0  0  0
  8 26  1  0  0  0  0
  8 27  1  0  0  0  0
  8 28  1  0  0  0  0
  9 29  1  0  0  0  0
 10 30  1  0  0  0  0
 10 31  1  0  0  0  0
 11 32  1  0  0  0  0
 11 33  1  0  0  0  0
 12 34  1  0  0  0  0
 12 35  1  0  0  0  0
 13 36  1  0  0  0  0
 14 37  1  0  0  0  0
 15 38  1  0  0  0  0
 16 39  1  0  0  0  0
 17 40  1  0  0  0  0
M  END
$$$$
