N69_A_1301
          05071912473D 1   1.00000     0.00000     0
            
 44 46  0  0  0  0            999 V2000
   -0.5287   27.4294    9.1456 O   0  0  0  0  0  0  0  0  0  0  0  0
   -0.2399   31.7171    7.4938 N   0  0  0  0  0  0  0  0  0  0  0  0
   -0.2988   29.5543    8.2583 N   0  0  0  0  0  0  0  0  0  0  0  0
    1.4471   30.2227    6.7869 N   0  0  0  0  0  0  0  0  0  0  0  0
    3.0194   28.5163    6.2384 N   0  0  0  0  0  0  0  0  0  0  0  0
    2.0963   26.8047    7.4916 N   0  0  0  0  0  0  0  0  0  0  0  0
    4.7387   26.4738    4.8046 C   0  0  0  0  0  0  0  0  0  0  0  0
    5.3419   26.4181    7.1842 C   0  0  0  0  0  0  0  0  0  0  0  0
   -0.5764   26.0145    8.9709 C   0  0  0  0  0  0  0  0  0  0  0  0
   -1.6456   24.1709   12.8241 C   0  0  0  0  0  0  0  0  0  0  0  0
   -1.0410   23.3077   11.7102 C   0  0  0  0  0  0  0  0  0  0  0  0
   -1.1025   25.6002   12.7973 C   0  0  0  0  0  0  0  0  0  0  0  0
   -1.1821   23.9703   10.3324 C   0  0  0  0  0  0  0  0  0  0  0  0
   -1.2227   26.2403   11.4140 C   0  0  0  0  0  0  0  0  0  0  0  0
    0.3138   30.4948    7.4976 C   0  0  0  0  0  0  0  0  0  0  0  0
    0.1798   28.2833    8.3404 C   0  0  0  0  0  0  0  0  0  0  0  0
    3.1070   27.1901    6.6197 C   0  0  0  0  0  0  0  0  0  0  0  0
    1.9466   28.9760    6.8541 C   0  0  0  0  0  0  0  0  0  0  0  0
    4.1959   26.2456    6.2028 C   0  0  0  0  0  0  0  0  0  0  0  0
    1.3161   27.9459    7.6567 C   0  0  0  0  0  0  0  0  0  0  0  0
   -0.5583   25.3626   10.3482 C   0  0  0  0  0  0  0  0  0  0  0  0
    0.1697   32.4499    6.9505 H   0  0  0  0  0  0  0  0  0  0  0  0
   -1.0621   31.8952    8.0344 H   0  0  0  0  0  0  0  0  0  0  0  0
    1.9595   25.9061    7.9085 H   0  0  0  0  0  0  0  0  0  0  0  0
    4.0007   26.3654    4.1387 H   0  0  0  0  0  0  0  0  0  0  0  0
    5.1134   27.3987    4.7393 H   0  0  0  0  0  0  0  0  0  0  0  0
    5.4600   25.8078    4.6142 H   0  0  0  0  0  0  0  0  0  0  0  0
    5.0081   26.2722    8.1154 H   0  0  0  0  0  0  0  0  0  0  0  0
    6.0594   25.7524    6.9791 H   0  0  0  0  0  0  0  0  0  0  0  0
    5.7128   27.3433    7.1042 H   0  0  0  0  0  0  0  0  0  0  0  0
    0.2170   25.7119    8.4428 H   0  0  0  0  0  0  0  0  0  0  0  0
   -1.4146   25.7613    8.4878 H   0  0  0  0  0  0  0  0  0  0  0  0
   -1.4259   23.7582   13.7081 H   0  0  0  0  0  0  0  0  0  0  0  0
   -2.6384   24.2002   12.7074 H   0  0  0  0  0  0  0  0  0  0  0  0
   -1.5107   22.4250   11.6942 H   0  0  0  0  0  0  0  0  0  0  0  0
   -0.0701   23.1651   11.9025 H   0  0  0  0  0  0  0  0  0  0  0  0
   -0.1381   25.5828   13.0610 H   0  0  0  0  0  0  0  0  0  0  0  0
   -1.6175   26.1523   13.4531 H   0  0  0  0  0  0  0  0  0  0  0  0
   -2.1519   24.0459   10.1004 H   0  0  0  0  0  0  0  0  0  0  0  0
   -0.7183   23.4087    9.6471 H   0  0  0  0  0  0  0  0  0  0  0  0
   -0.7760   27.1349   11.4269 H   0  0  0  0  0  0  0  0  0  0  0  0
   -2.1902   26.3541   11.1884 H   0  0  0  0  0  0  0  0  0  0  0  0
    3.8532   25.3084    6.2675 H   0  0  0  0  0  0  0  0  0  0  0  0
    0.4005   25.2537   10.6108 H   0  0  0  0  0  0  0  0  0  0  0  0
  1  9  1  0  0  0  0
  1 16  1  0  0  0  0
  2 15  1  0  0  0  0
  3 15  2  0  0  0  0
  3 16  1  0  0  0  0
  4 15  1  0  0  0  0
  4 18  2  0  0  0  0
  5 17  2  0  0  0  0
  5 18  1  0  0  0  0
  6 17  1  0  0  0  0
  6 20  1  0  0  0  0
  7 19  1  0  0  0  0
  8 19  1  0  0  0  0
  9 21  1  0  0  0  0
 10 11  1  0  0  0  0
 10 12  1  0  0  0  0
 11 13  1  0  0  0  0
 12 14  1  0  0  0  0
 13 21  1  0  0  0  0
 14 21  1  0  0  0  0
 16 20  2  0  0  0  0
 17 19  1  0  0  0  0
 18 20  1  0  0  0  0
  2 22  1  0  0  0  0
  2 23  1  0  0  0  0
  6 24  1  0  0  0  0
  7 25  1  0  0  0  0
  7 26  1  0  0  0  0
  7 27  1  0  0  0  0
  8 28  1  0  0  0  0
  8 29  1  0  0  0  0
  8 30  1  0  0  0  0
  9 31  1  0  0  0  0
  9 32  1  0  0  0  0
 10 33  1  0  0  0  0
 10 34  1  0  0  0  0
 11 35  1  0  0  0  0
 11 36  1  0  0  0  0
 12 37  1  0  0  0  0
 12 38  1  0  0  0  0
 13 39  1  0  0  0  0
 13 40  1  0  0  0  0
 14 41  1  0  0  0  0
 14 42  1  0  0  0  0
 19 43  1  0  0  0  0
 21 44  1  0  0  0  0
M  END
$$$$
