CT9_A_401
          05071912473D 1   1.00000     0.00000     0
            
 66 69  0  0  0  0            999 V2000
    7.1774   23.7717    6.7643 S   0  0  0  0  0  0  0  0  0  0  0  0
    7.8189   23.5573    5.4565 O   0  0  0  0  0  0  0  0  0  0  0  0
    8.0572   24.1959    7.8443 O   0  0  0  0  0  0  0  0  0  0  0  0
   -2.7887   25.5570   13.8220 N   0  0  0  0  0  0  0  0  0  0  0  0
    1.5489   30.3984    6.6795 N   0  0  0  0  0  0  0  0  0  0  0  0
   -0.3797   28.1186    8.3513 N   0  0  0  0  0  0  0  0  0  0  0  0
   -0.3176   25.8886    8.8239 N   0  0  0  0  0  0  0  0  0  0  0  0
    3.1893   28.0888    6.3493 N   0  0  0  0  0  0  0  0  0  0  0  0
    6.4159   22.3850    7.1295 N   0  0  0  0  0  0  0  0  0  0  0  0
    1.2864   29.1728    7.1290 N   0  0  0  0  0  0  0  0  0  0  0  0
    5.9411   21.5416    6.0284 C   0  0  0  0  0  0  0  0  0  0  0  0
    6.1877   21.9618    8.5161 C   0  0  0  0  0  0  0  0  0  0  0  0
   -1.7207   31.2299    9.8406 C   0  0  0  0  0  0  0  0  0  0  0  0
   -2.8394   30.0453    7.9727 C   0  0  0  0  0  0  0  0  0  0  0  0
    0.5397   31.2152    7.0688 C   0  0  0  0  0  0  0  0  0  0  0  0
    5.2844   25.4860    7.7360 C   0  0  0  0  0  0  0  0  0  0  0  0
    5.7538   25.6900    5.3691 C   0  0  0  0  0  0  0  0  0  0  0  0
   -1.1542   26.6465   12.3462 C   0  0  0  0  0  0  0  0  0  0  0  0
   -2.2768   24.5062   11.6589 C   0  0  0  0  0  0  0  0  0  0  0  0
    4.3371   26.4882    7.6649 C   0  0  0  0  0  0  0  0  0  0  0  0
    4.8076   26.7081    5.2689 C   0  0  0  0  0  0  0  0  0  0  0  0
   -0.7685   26.8944   10.8986 C   0  0  0  0  0  0  0  0  0  0  0  0
   -1.8620   24.7820   10.2141 C   0  0  0  0  0  0  0  0  0  0  0  0
    1.4863   26.8930    7.6042 C   0  0  0  0  0  0  0  0  0  0  0  0
    5.9871   25.0904    6.5929 C   0  0  0  0  0  0  0  0  0  0  0  0
    0.2806   26.9649    8.2878 C   0  0  0  0  0  0  0  0  0  0  0  0
    2.0036   28.0534    7.0194 C   0  0  0  0  0  0  0  0  0  0  0  0
   -2.4522   25.8324   12.4094 C   0  0  0  0  0  0  0  0  0  0  0  0
    0.1494   29.1921    7.7906 C   0  0  0  0  0  0  0  0  0  0  0  0
   -0.5561   25.5645   10.2065 C   0  0  0  0  0  0  0  0  0  0  0  0
    4.0995   27.1037    6.4229 C   0  0  0  0  0  0  0  0  0  0  0  0
   -1.6619   30.8524    8.3854 C   0  0  0  0  0  0  0  0  0  0  0  0
   -0.3728   30.4577    7.7853 C   0  0  0  0  0  0  0  0  0  0  0  0
   -3.6350   25.0261   13.8657 H   0  0  0  0  0  0  0  0  0  0  0  0
   -2.0470   25.0374   14.2462 H   0  0  0  0  0  0  0  0  0  0  0  0
   -0.6461   25.2117    8.1652 H   0  0  0  0  0  0  0  0  0  0  0  0
    3.3909   28.8836    5.7770 H   0  0  0  0  0  0  0  0  0  0  0  0
    5.4953   20.7274    6.4004 H   0  0  0  0  0  0  0  0  0  0  0  0
    5.2870   22.0553    5.4731 H   0  0  0  0  0  0  0  0  0  0  0  0
    6.7170   21.2667    5.4605 H   0  0  0  0  0  0  0  0  0  0  0  0
    5.7058   21.0856    8.5223 H   0  0  0  0  0  0  0  0  0  0  0  0
    7.0663   21.8623    8.9831 H   0  0  0  0  0  0  0  0  0  0  0  0
    5.6355   22.6493    8.9879 H   0  0  0  0  0  0  0  0  0  0  0  0
   -0.9134   31.7703   10.0776 H   0  0  0  0  0  0  0  0  0  0  0  0
   -2.5451   31.7695   10.0119 H   0  0  0  0  0  0  0  0  0  0  0  0
   -1.7428   30.4009   10.3994 H   0  0  0  0  0  0  0  0  0  0  0  0
   -2.7625   29.8156    7.0025 H   0  0  0  0  0  0  0  0  0  0  0  0
   -2.8729   29.2043    8.5127 H   0  0  0  0  0  0  0  0  0  0  0  0
   -3.6751   30.5728    8.1252 H   0  0  0  0  0  0  0  0  0  0  0  0
    0.4666   32.1931    6.8733 H   0  0  0  0  0  0  0  0  0  0  0  0
    5.4695   25.0395    8.6114 H   0  0  0  0  0  0  0  0  0  0  0  0
    6.2615   25.3946    4.5599 H   0  0  0  0  0  0  0  0  0  0  0  0
   -1.2900   27.5231   12.8078 H   0  0  0  0  0  0  0  0  0  0  0  0
   -0.4225   26.1396   12.8020 H   0  0  0  0  0  0  0  0  0  0  0  0
   -1.5699   23.9606   12.1091 H   0  0  0  0  0  0  0  0  0  0  0  0
   -3.1411   24.0034   11.6662 H   0  0  0  0  0  0  0  0  0  0  0  0
    3.8306   26.7705    8.4796 H   0  0  0  0  0  0  0  0  0  0  0  0
    4.6329   27.1524    4.3903 H   0  0  0  0  0  0  0  0  0  0  0  0
    0.0764   27.4283   10.8640 H   0  0  0  0  0  0  0  0  0  0  0  0
   -1.5000   27.3979   10.4388 H   0  0  0  0  0  0  0  0  0  0  0  0
   -2.5741   25.3159    9.7582 H   0  0  0  0  0  0  0  0  0  0  0  0
   -1.7350   23.9153    9.7318 H   0  0  0  0  0  0  0  0  0  0  0  0
    1.9775   26.0251    7.5308 H   0  0  0  0  0  0  0  0  0  0  0  0
   -3.1928   26.3561   11.9883 H   0  0  0  0  0  0  0  0  0  0  0  0
    0.1980   25.0452   10.6086 H   0  0  0  0  0  0  0  0  0  0  0  0
   -1.8415   31.7274    7.9360 H   0  0  0  0  0  0  0  0  0  0  0  0
  1  2  2  0  0  0  0
  1  3  2  0  0  0  0
  1  9  1  0  0  0  0
  1 25  1  0  0  0  0
  4 28  1  0  0  0  0
  5 10  1  0  0  0  0
  5 15  2  0  0  0  0
  6 26  2  0  0  0  0
  6 29  1  0  0  0  0
  7 26  1  0  0  0  0
  7 30  1  0  0  0  0
  8 27  1  0  0  0  0
  8 31  1  0  0  0  0
  9 11  1  0  0  0  0
  9 12  1  0  0  0  0
 10 27  1  0  0  0  0
 10 29  1  0  0  0  0
 13 32  1  0  0  0  0
 14 32  1  0  0  0  0
 15 33  1  0  0  0  0
 16 20  2  0  0  0  0
 16 25  1  0  0  0  0
 17 21  1  0  0  0  0
 17 25  2  0  0  0  0
 18 22  1  0  0  0  0
 18 28  1  0  0  0  0
 19 23  1  0  0  0  0
 19 28  1  0  0  0  0
 20 31  1  0  0  0  0
 21 31  2  0  0  0  0
 22 30  1  0  0  0  0
 23 30  1  0  0  0  0
 24 26  1  0  0  0  0
 24 27  2  0  0  0  0
 29 33  2  0  0  0  0
 32 33  1  0  0  0  0
  4 34  1  0  0  0  0
  4 35  1  0  0  0  0
  7 36  1  0  0  0  0
  8 37  1  0  0  0  0
 11 38  1  0  0  0  0
 11 39  1  0  0  0  0
 11 40  1  0  0  0  0
 12 41  1  0  0  0  0
 12 42  1  0  0  0  0
 12 43  1  0  0  0  0
 13 44  1  0  0  0  0
 13 45  1  0  0  0  0
 13 46  1  0  0  0  0
 14 47  1  0  0  0  0
 14 48  1  0  0  0  0
 14 49  1  0  0  0  0
 15 50  1  0  0  0  0
 16 51  1  0  0  0  0
 17 52  1  0  0  0  0
 18 53  1  0  0  0  0
 18 54  1  0  0  0  0
 19 55  1  0  0  0  0
 19 56  1  0  0  0  0
 20 57  1  0  0  0  0
 21 58  1  0  0  0  0
 22 59  1  0  0  0  0
 22 60  1  0  0  0  0
 23 61  1  0  0  0  0
 23 62  1  0  0  0  0
 24 63  1  0  0  0  0
 28 64  1  0  0  0  0
 30 65  1  0  0  0  0
 32 66  1  0  0  0  0
M  END
$$$$
