628_A_299
          05071912473D 1   1.00000     0.00000     0
            
 44 47  0  0  0  0            999 V2000
   -0.4044   28.4893   11.9002 Cl  0  0  0  0  0  0  0  0  0  0  0  0
   -4.6027   28.3076    9.2780 Cl  0  0  0  0  0  0  0  0  0  0  0  0
    7.0217   24.1448    7.2850 S   0  0  0  0  0  0  0  0  0  0  0  0
    7.7094   23.8002    6.0676 O   0  0  0  0  0  0  0  0  0  0  0  0
    7.8033   24.6075    8.4047 O   0  0  0  0  0  0  0  0  0  0  0  0
   -3.0007   30.8690   10.4786 O   0  0  0  0  0  0  0  0  0  0  0  0
    6.2487   22.8017    7.8012 N   0  0  0  0  0  0  0  0  0  0  0  0
    2.0054   30.5187    6.4446 N   0  0  0  0  0  0  0  0  0  0  0  0
    3.1226   28.3610    5.5307 N   0  0  0  0  0  0  0  0  0  0  0  0
    0.5329   29.3643    7.6721 N   0  0  0  0  0  0  0  0  0  0  0  0
    1.2433   28.4077    7.0709 C   0  0  0  0  0  0  0  0  0  0  0  0
   -0.4719   29.1520    8.5010 C   0  0  0  0  0  0  0  0  0  0  0  0
   -2.9183   25.8322   11.4734 C   0  0  0  0  0  0  0  0  0  0  0  0
   -1.7741   26.5456   11.8980 C   0  0  0  0  0  0  0  0  0  0  0  0
   -3.8693   26.4313   10.5995 C   0  0  0  0  0  0  0  0  0  0  0  0
    5.8425   25.8376    5.4957 C   0  0  0  0  0  0  0  0  0  0  0  0
    4.9625   25.8994    7.8411 C   0  0  0  0  0  0  0  0  0  0  0  0
    0.3141   31.7899    7.8209 C   0  0  0  0  0  0  0  0  0  0  0  0
    4.9305   26.8239    5.1047 C   0  0  0  0  0  0  0  0  0  0  0  0
    4.0362   26.9009    7.4411 C   0  0  0  0  0  0  0  0  0  0  0  0
   -0.7749   31.5743    8.7266 C   0  0  0  0  0  0  0  0  0  0  0  0
   -1.5348   27.8593   11.4500 C   0  0  0  0  0  0  0  0  0  0  0  0
   -3.6682   27.7593   10.1193 C   0  0  0  0  0  0  0  0  0  0  0  0
    5.8578   25.3802    6.8523 C   0  0  0  0  0  0  0  0  0  0  0  0
   -2.2791   29.9667   10.0474 C   0  0  0  0  0  0  0  0  0  0  0  0
    2.1678   29.1615    6.3130 C   0  0  0  0  0  0  0  0  0  0  0  0
    0.9379   30.6132    7.3097 C   0  0  0  0  0  0  0  0  0  0  0  0
    4.0222   27.3629    6.0615 C   0  0  0  0  0  0  0  0  0  0  0  0
   -1.1693   30.2352    9.0859 C   0  0  0  0  0  0  0  0  0  0  0  0
   -2.4968   28.5402   10.5453 C   0  0  0  0  0  0  0  0  0  0  0  0
    5.7579   23.0045    8.6486 H   0  0  0  0  0  0  0  0  0  0  0  0
    5.5984   22.5022    7.1029 H   0  0  0  0  0  0  0  0  0  0  0  0
    3.1515   28.5220    4.5442 H   0  0  0  0  0  0  0  0  0  0  0  0
    1.1465   27.4147    7.1391 H   0  0  0  0  0  0  0  0  0  0  0  0
   -0.7437   28.2145    8.7182 H   0  0  0  0  0  0  0  0  0  0  0  0
   -3.0616   24.8948   11.7909 H   0  0  0  0  0  0  0  0  0  0  0  0
   -1.1263   26.1120   12.5244 H   0  0  0  0  0  0  0  0  0  0  0  0
   -4.6817   25.9189   10.3212 H   0  0  0  0  0  0  0  0  0  0  0  0
    6.4819   25.4533    4.8297 H   0  0  0  0  0  0  0  0  0  0  0  0
    4.9879   25.5679    8.7842 H   0  0  0  0  0  0  0  0  0  0  0  0
    0.6177   32.7073    7.5634 H   0  0  0  0  0  0  0  0  0  0  0  0
    4.9160   27.1488    4.1591 H   0  0  0  0  0  0  0  0  0  0  0  0
    3.3962   27.2865    8.1057 H   0  0  0  0  0  0  0  0  0  0  0  0
   -1.2640   32.3570    9.1116 H   0  0  0  0  0  0  0  0  0  0  0  0
  1 22  1  0  0  0  0
  2 23  1  0  0  0  0
  3  4  2  0  0  0  0
  3  5  2  0  0  0  0
  3  7  1  0  0  0  0
  3 24  1  0  0  0  0
  6 25  2  0  0  0  0
  8 26  1  0  0  0  0
  8 27  2  0  0  0  0
  9 26  1  0  0  0  0
  9 28  1  0  0  0  0
 10 11  1  0  0  0  0
 10 12  1  0  0  0  0
 10 27  1  0  0  0  0
 11 26  2  0  0  0  0
 12 29  2  0  0  0  0
 13 14  2  0  0  0  0
 13 15  1  0  0  0  0
 14 22  1  0  0  0  0
 15 23  2  0  0  0  0
 16 19  1  0  0  0  0
 16 24  2  0  0  0  0
 17 20  2  0  0  0  0
 17 24  1  0  0  0  0
 18 21  2  0  0  0  0
 18 27  1  0  0  0  0
 19 28  2  0  0  0  0
 20 28  1  0  0  0  0
 21 29  1  0  0  0  0
 22 30  2  0  0  0  0
 23 30  1  0  0  0  0
 25 29  1  0  0  0  0
 25 30  1  0  0  0  0
  7 31  1  0  0  0  0
  7 32  1  0  0  0  0
  9 33  1  0  0  0  0
 11 34  1  0  0  0  0
 12 35  1  0  0  0  0
 13 36  1  0  0  0  0
 14 37  1  0  0  0  0
 15 38  1  0  0  0  0
 16 39  1  0  0  0  0
 17 40  1  0  0  0  0
 18 41  1  0  0  0  0
 19 42  1  0  0  0  0
 20 43  1  0  0  0  0
 21 44  1  0  0  0  0
M  END
$$$$
