RRC_A_300
          05071912473D 1   1.00000     0.00000     0
            
 52 54  0  0  0  0            999 V2000
   -0.3659   23.4096   11.2936 O   0  0  0  0  0  0  0  0  0  0  0  0
    3.6357   27.8305    6.7999 N   0  0  0  0  0  0  0  0  0  0  0  0
    1.4387   30.1384    6.4207 N   0  0  0  0  0  0  0  0  0  0  0  0
    2.1088   27.0041    8.3142 N   0  0  0  0  0  0  0  0  0  0  0  0
    0.0599   27.9841    8.8381 N   0  0  0  0  0  0  0  0  0  0  0  0
    0.5693   26.1229    9.9479 N   0  0  0  0  0  0  0  0  0  0  0  0
   -0.4192   30.0430    7.6401 N   0  0  0  0  0  0  0  0  0  0  0  0
   -1.4884   27.3712   12.5083 C   0  0  0  0  0  0  0  0  0  0  0  0
   -1.4829   30.5729    9.7986 C   0  0  0  0  0  0  0  0  0  0  0  0
   -2.6638   29.1316    8.0682 C   0  0  0  0  0  0  0  0  0  0  0  0
    0.3016   30.7324    6.7002 C   0  0  0  0  0  0  0  0  0  0  0  0
   -1.0593   24.2628   10.3481 C   0  0  0  0  0  0  0  0  0  0  0  0
    4.3728   26.6000    7.1456 C   0  0  0  0  0  0  0  0  0  0  0  0
   -0.7848   26.0706   12.0784 C   0  0  0  0  0  0  0  0  0  0  0  0
    5.5145   24.7592    3.4565 C   0  0  0  0  0  0  0  0  0  0  0  0
    5.5068   26.1468    3.5359 C   0  0  0  0  0  0  0  0  0  0  0  0
    5.1851   23.9378    4.5333 C   0  0  0  0  0  0  0  0  0  0  0  0
    5.1334   26.7354    4.7393 C   0  0  0  0  0  0  0  0  0  0  0  0
    4.8158   24.5461    5.7272 C   0  0  0  0  0  0  0  0  0  0  0  0
    0.9478   27.0144    9.0215 C   0  0  0  0  0  0  0  0  0  0  0  0
    2.4582   27.9485    7.3852 C   0  0  0  0  0  0  0  0  0  0  0  0
    0.3492   28.9462    7.9364 C   0  0  0  0  0  0  0  0  0  0  0  0
   -1.7071   30.3307    8.2873 C   0  0  0  0  0  0  0  0  0  0  0  0
   -0.7879   25.7525   10.5654 C   0  0  1  0  0  0  0  0  0  0  0  0
    1.5023   28.9881    7.1975 C   0  0  0  0  0  0  0  0  0  0  0  0
    4.7830   25.9331    5.8185 C   0  0  0  0  0  0  0  0  0  0  0  0
   -0.5828   22.4528   11.1004 H   0  0  0  0  0  0  0  0  0  0  0  0
    3.9987   28.5196    6.1727 H   0  0  0  0  0  0  0  0  0  0  0  0
    1.3296   25.5863   10.3139 H   0  0  0  0  0  0  0  0  0  0  0  0
   -1.4239   27.4726   13.5011 H   0  0  0  0  0  0  0  0  0  0  0  0
   -1.0475   28.1512   12.0642 H   0  0  0  0  0  0  0  0  0  0  0  0
   -2.4507   27.3343   12.2388 H   0  0  0  0  0  0  0  0  0  0  0  0
   -2.3594   30.7686   10.2384 H   0  0  0  0  0  0  0  0  0  0  0  0
   -1.0781   29.7566   10.2105 H   0  0  0  0  0  0  0  0  0  0  0  0
   -0.8663   31.3502    9.9237 H   0  0  0  0  0  0  0  0  0  0  0  0
   -3.5423   29.3217    8.5065 H   0  0  0  0  0  0  0  0  0  0  0  0
   -2.8037   28.9916    7.0880 H   0  0  0  0  0  0  0  0  0  0  0  0
   -2.2628   28.3077    8.4687 H   0  0  0  0  0  0  0  0  0  0  0  0
   -0.0024   31.5861    6.2775 H   0  0  0  0  0  0  0  0  0  0  0  0
   -2.0424   24.1029   10.4380 H   0  0  0  0  0  0  0  0  0  0  0  0
   -0.7648   24.0180    9.4244 H   0  0  0  0  0  0  0  0  0  0  0  0
    3.7863   25.9847    7.6723 H   0  0  0  0  0  0  0  0  0  0  0  0
    5.1859   26.8259    7.6821 H   0  0  0  0  0  0  0  0  0  0  0  0
   -1.2346   25.3117   12.5494 H   0  0  0  0  0  0  0  0  0  0  0  0
    0.1685   26.1286   12.3747 H   0  0  0  0  0  0  0  0  0  0  0  0
    5.7674   24.3314    2.5888 H   0  0  0  0  0  0  0  0  0  0  0  0
    5.7630   26.7073    2.7484 H   0  0  0  0  0  0  0  0  0  0  0  0
    5.2136   22.9417    4.4495 H   0  0  0  0  0  0  0  0  0  0  0  0
    5.1172   27.7313    4.8277 H   0  0  0  0  0  0  0  0  0  0  0  0
    4.5738   23.9866    6.5199 H   0  0  0  0  0  0  0  0  0  0  0  0
   -2.1065   31.1507    7.8773 H   0  0  0  0  0  0  0  0  0  0  0  0
   -1.5073   26.2853   10.1198 H   0  0  0  0  0  0  0  0  0  0  0  0
  1 12  1  0  0  0  0
  2 13  1  0  0  0  0
  2 21  1  0  0  0  0
  3 11  2  0  0  0  0
  3 25  1  0  0  0  0
  4 20  1  0  0  0  0
  4 21  2  0  0  0  0
  5 20  2  0  0  0  0
  5 22  1  0  0  0  0
  6 20  1  0  0  0  0
  6 24  1  0  0  0  0
  7 11  1  0  0  0  0
  7 22  1  0  0  0  0
  7 23  1  0  0  0  0
  8 14  1  0  0  0  0
  9 23  1  0  0  0  0
 10 23  1  0  0  0  0
 12 24  1  0  0  0  0
 13 26  1  0  0  0  0
 14 24  1  0  0  0  0
 15 16  2  0  0  0  0
 15 17  1  0  0  0  0
 16 18  1  0  0  0  0
 17 19  2  0  0  0  0
 18 26  2  0  0  0  0
 19 26  1  0  0  0  0
 21 25  1  0  0  0  0
 22 25  2  0  0  0  0
  1 27  1  0  0  0  0
  2 28  1  0  0  0  0
  6 29  1  0  0  0  0
  8 30  1  0  0  0  0
  8 31  1  0  0  0  0
  8 32  1  0  0  0  0
  9 33  1  0  0  0  0
  9 34  1  0  0  0  0
  9 35  1  0  0  0  0
 10 36  1  0  0  0  0
 10 37  1  0  0  0  0
 10 38  1  0  0  0  0
 11 39  1  0  0  0  0
 12 40  1  0  0  0  0
 12 41  1  0  0  0  0
 13 42  1  0  0  0  0
 13 43  1  0  0  0  0
 14 44  1  0  0  0  0
 14 45  1  0  0  0  0
 15 46  1  0  0  0  0
 16 47  1  0  0  0  0
 17 48  1  0  0  0  0
 18 49  1  0  0  0  0
 19 50  1  0  0  0  0
 23 51  1  0  0  0  0
 24 52  1  0  0  0  0
M  END
$$$$
