D42_A_299
          05071912473D 1   1.00000     0.00000     0
            
 54 58  0  0  0  0            999 V2000
    3.9530   25.5965    7.9565 S   0  0  0  0  0  0  0  0  0  0  0  0
   -3.3716   28.0954   11.2135 O   0  0  0  0  0  0  0  0  0  0  0  0
    0.6592   26.5010    8.6626 O   0  0  0  0  0  0  0  0  0  0  0  0
    3.2816   29.0714    5.8842 N   0  0  0  0  0  0  0  0  0  0  0  0
    2.3142   30.2106    6.1391 N   0  0  0  0  0  0  0  0  0  0  0  0
   -2.9456   25.9165   10.9598 N   0  0  0  0  0  0  0  0  0  0  0  0
   -1.6454   27.5080    9.9242 N   0  0  0  0  0  0  0  0  0  0  0  0
    5.6793   25.2590    5.9110 N   0  0  0  0  0  0  0  0  0  0  0  0
   -2.0113   24.9585   11.6605 N   0  0  0  0  0  0  0  0  0  0  0  0
   -0.4795   23.1437   13.2920 N   0  0  0  0  0  0  0  0  0  0  0  0
   -0.0652   21.9977   14.1037 C   0  0  0  0  0  0  0  0  0  0  0  0
    6.0300   23.4946    7.7797 C   0  0  0  0  0  0  0  0  0  0  0  0
    5.1898   27.0795    4.2786 C   0  0  0  0  0  0  0  0  0  0  0  0
   -1.9477   25.1298   13.1303 C   0  0  0  0  0  0  0  0  0  0  0  0
   -0.7947   24.3368   11.0945 C   0  0  0  0  0  0  0  0  0  0  0  0
   -1.6832   23.8119   13.8400 C   0  0  0  0  0  0  0  0  0  0  0  0
   -0.4420   23.0265   11.8075 C   0  0  0  0  0  0  0  0  0  0  0  0
   -1.6882   31.2285    8.8493 C   0  0  0  0  0  0  0  0  0  0  0  0
   -2.1230   30.0177    9.5700 C   0  0  0  0  0  0  0  0  0  0  0  0
   -0.5401   31.1855    7.9213 C   0  0  0  0  0  0  0  0  0  0  0  0
   -2.6734   27.2034   10.7175 C   0  0  0  0  0  0  0  0  0  0  0  0
    5.3272   24.6983    7.1664 C   0  0  0  0  0  0  0  0  0  0  0  0
    3.8651   26.7450    6.5529 C   0  0  0  0  0  0  0  0  0  0  0  0
    0.7065   27.6132    8.1343 C   0  0  0  0  0  0  0  0  0  0  0  0
    4.8857   26.3828    5.5712 C   0  0  0  0  0  0  0  0  0  0  0  0
   -1.3646   28.7673    9.3362 C   0  0  0  0  0  0  0  0  0  0  0  0
    2.9349   27.8665    6.5332 C   0  0  0  0  0  0  0  0  0  0  0  0
    1.3717   29.5628    6.9663 C   0  0  0  0  0  0  0  0  0  0  0  0
    0.1862   29.9292    7.7124 C   0  0  0  0  0  0  0  0  0  0  0  0
   -0.2094   28.7082    8.4216 C   0  0  0  0  0  0  0  0  0  0  0  0
    1.6930   28.1749    7.2216 C   0  0  0  0  0  0  0  0  0  0  0  0
    2.3373   31.1556    5.8128 H   0  0  0  0  0  0  0  0  0  0  0  0
   -3.8303   25.5636   10.6555 H   0  0  0  0  0  0  0  0  0  0  0  0
   -1.0033   26.7684    9.7224 H   0  0  0  0  0  0  0  0  0  0  0  0
    0.7475   21.5788   13.6987 H   0  0  0  0  0  0  0  0  0  0  0  0
    0.1457   22.3053   15.0316 H   0  0  0  0  0  0  0  0  0  0  0  0
   -0.8057   21.3265   14.1353 H   0  0  0  0  0  0  0  0  0  0  0  0
    6.7478   23.1765    7.1604 H   0  0  0  0  0  0  0  0  0  0  0  0
    6.4367   23.7563    8.6549 H   0  0  0  0  0  0  0  0  0  0  0  0
    5.3669   22.7606    7.9264 H   0  0  0  0  0  0  0  0  0  0  0  0
    4.5627   27.8493    4.1592 H   0  0  0  0  0  0  0  0  0  0  0  0
    6.1313   27.4160    4.2947 H   0  0  0  0  0  0  0  0  0  0  0  0
    5.0781   26.4378    3.5197 H   0  0  0  0  0  0  0  0  0  0  0  0
   -2.8190   25.5013   13.4511 H   0  0  0  0  0  0  0  0  0  0  0  0
   -1.2113   25.7697   13.3502 H   0  0  0  0  0  0  0  0  0  0  0  0
   -0.0302   24.9742   11.1914 H   0  0  0  0  0  0  0  0  0  0  0  0
   -0.9492   24.1465   10.1250 H   0  0  0  0  0  0  0  0  0  0  0  0
   -1.5441   23.9878   14.8145 H   0  0  0  0  0  0  0  0  0  0  0  0
   -2.4737   23.2114   13.7192 H   0  0  0  0  0  0  0  0  0  0  0  0
   -1.0965   22.3246   11.5266 H   0  0  0  0  0  0  0  0  0  0  0  0
    0.4795   22.7521   11.5326 H   0  0  0  0  0  0  0  0  0  0  0  0
   -2.1768   32.0895    8.9908 H   0  0  0  0  0  0  0  0  0  0  0  0
   -2.9033   30.0401   10.1950 H   0  0  0  0  0  0  0  0  0  0  0  0
   -0.2582   32.0129    7.4356 H   0  0  0  0  0  0  0  0  0  0  0  0
  1 22  1  0  0  0  0
  1 23  1  0  0  0  0
  2 21  2  0  0  0  0
  3 24  2  0  0  0  0
  4  5  1  0  0  0  0
  4 27  2  0  0  0  0
  5 28  1  0  0  0  0
  6  9  1  0  0  0  0
  6 21  1  0  0  0  0
  7 21  1  0  0  0  0
  7 26  1  0  0  0  0
  8 22  2  0  0  0  0
  8 25  1  0  0  0  0
  9 14  1  0  0  0  0
  9 15  1  0  0  0  0
 10 11  1  0  0  0  0
 10 16  1  0  0  0  0
 10 17  1  0  0  0  0
 12 22  1  0  0  0  0
 13 25  1  0  0  0  0
 14 16  1  0  0  0  0
 15 17  1  0  0  0  0
 18 19  1  0  0  0  0
 18 20  2  0  0  0  0
 19 26  2  0  0  0  0
 20 29  1  0  0  0  0
 23 25  2  0  0  0  0
 23 27  1  0  0  0  0
 24 30  1  0  0  0  0
 24 31  1  0  0  0  0
 26 30  1  0  0  0  0
 27 31  1  0  0  0  0
 28 29  1  0  0  0  0
 28 31  2  0  0  0  0
 29 30  2  0  0  0  0
  5 32  1  0  0  0  0
  6 33  1  0  0  0  0
  7 34  1  0  0  0  0
 11 35  1  0  0  0  0
 11 36  1  0  0  0  0
 11 37  1  0  0  0  0
 12 38  1  0  0  0  0
 12 39  1  0  0  0  0
 12 40  1  0  0  0  0
 13 41  1  0  0  0  0
 13 42  1  0  0  0  0
 13 43  1  0  0  0  0
 14 44  1  0  0  0  0
 14 45  1  0  0  0  0
 15 46  1  0  0  0  0
 15 47  1  0  0  0  0
 16 48  1  0  0  0  0
 16 49  1  0  0  0  0
 17 50  1  0  0  0  0
 17 51  1  0  0  0  0
 18 52  1  0  0  0  0
 19 53  1  0  0  0  0
 20 54  1  0  0  0  0
M  END
$$$$
