D23_A_299
          05071912473D 1   1.00000     0.00000     0
            
 45 47  0  0  0  0            999 V2000
   -2.3998   30.2711    9.8139 F   0  0  0  0  0  0  0  0  0  0  0  0
   -1.6187   31.1509    7.9816 F   0  0  0  0  0  0  0  0  0  0  0  0
   -3.1173   29.5996    7.9147 F   0  0  0  0  0  0  0  0  0  0  0  0
    6.6380   23.0174    9.0934 N   0  0  0  0  0  0  0  0  0  0  0  0
   -1.1879   27.8974    9.3603 N   0  0  0  0  0  0  0  0  0  0  0  0
   -0.0360   29.1211    7.6516 N   0  0  0  0  0  0  0  0  0  0  0  0
   -0.4993   25.9810   10.3842 N   0  0  0  0  0  0  0  0  0  0  0  0
   -1.2674   26.9620   12.5202 C   0  0  0  0  0  0  0  0  0  0  0  0
   -2.8713   25.7223   11.0499 C   0  0  0  0  0  0  0  0  0  0  0  0
   -1.0323   24.3997   12.1892 C   0  0  0  0  0  0  0  0  0  0  0  0
    6.1144   24.1741    5.5566 C   0  0  0  0  0  0  0  0  0  0  0  0
    6.7287   23.5002    6.6834 C   0  0  0  0  0  0  0  0  0  0  0  0
    4.9693   25.0331    5.8276 C   0  0  0  0  0  0  0  0  0  0  0  0
    2.1165   28.4559    6.6210 C   0  0  0  0  0  0  0  0  0  0  0  0
    3.2089   27.5147    6.5492 C   0  0  0  0  0  0  0  0  0  0  0  0
    5.0102   24.5927    8.2673 C   0  0  0  0  0  0  0  0  0  0  0  0
    2.1192   26.0878    8.3611 C   0  0  0  0  0  0  0  0  0  0  0  0
   -0.1903   26.9464    9.3658 C   0  0  0  0  0  0  0  0  0  0  0  0
    6.1375   23.7115    8.0033 C   0  0  0  0  0  0  0  0  0  0  0  0
   -1.0805   28.9661    8.5092 C   0  0  0  0  0  0  0  0  0  0  0  0
    1.0189   28.2295    7.5638 C   0  0  0  0  0  0  0  0  0  0  0  0
    4.3865   25.3105    7.1654 C   0  0  0  0  0  0  0  0  0  0  0  0
    3.2540   26.2956    7.3932 C   0  0  0  0  0  0  0  0  0  0  0  0
    0.9891   27.0217    8.4830 C   0  0  0  0  0  0  0  0  0  0  0  0
   -2.0994   30.0560    8.5576 C   0  0  0  0  0  0  0  0  0  0  0  0
   -1.4074   25.7529   11.5396 C   0  0  0  0  0  0  0  0  0  0  0  0
    6.2396   23.1558   10.0001 H   0  0  0  0  0  0  0  0  0  0  0  0
    7.3975   22.3781    8.9733 H   0  0  0  0  0  0  0  0  0  0  0  0
    0.1040   25.1903   10.2802 H   0  0  0  0  0  0  0  0  0  0  0  0
   -1.8718   26.8264   13.3052 H   0  0  0  0  0  0  0  0  0  0  0  0
   -0.3207   27.0274   12.8358 H   0  0  0  0  0  0  0  0  0  0  0  0
   -1.5200   27.8060   12.0469 H   0  0  0  0  0  0  0  0  0  0  0  0
   -3.4800   25.5688   11.8283 H   0  0  0  0  0  0  0  0  0  0  0  0
   -3.0965   26.5955   10.6177 H   0  0  0  0  0  0  0  0  0  0  0  0
   -2.9855   24.9828   10.3866 H   0  0  0  0  0  0  0  0  0  0  0  0
   -1.6327   24.2270   12.9700 H   0  0  0  0  0  0  0  0  0  0  0  0
   -1.1396   23.6665   11.5176 H   0  0  0  0  0  0  0  0  0  0  0  0
   -0.0823   24.4310   12.4996 H   0  0  0  0  0  0  0  0  0  0  0  0
    6.4637   24.0538    4.6273 H   0  0  0  0  0  0  0  0  0  0  0  0
    7.5282   22.9118    6.5620 H   0  0  0  0  0  0  0  0  0  0  0  0
    4.5367   25.4758    5.0422 H   0  0  0  0  0  0  0  0  0  0  0  0
    2.1093   29.2611    6.0280 H   0  0  0  0  0  0  0  0  0  0  0  0
    3.9583   27.6900    5.9107 H   0  0  0  0  0  0  0  0  0  0  0  0
    4.6662   24.7044    9.1996 H   0  0  0  0  0  0  0  0  0  0  0  0
    2.1346   25.2781    8.9478 H   0  0  0  0  0  0  0  0  0  0  0  0
  1 25  1  0  0  0  0
  2 25  1  0  0  0  0
  3 25  1  0  0  0  0
  4 19  1  0  0  0  0
  5 18  2  0  0  0  0
  5 20  1  0  0  0  0
  6 20  2  0  0  0  0
  6 21  1  0  0  0  0
  7 18  1  0  0  0  0
  7 26  1  0  0  0  0
  8 26  1  0  0  0  0
  9 26  1  0  0  0  0
 10 26  1  0  0  0  0
 11 12  1  0  0  0  0
 11 13  2  0  0  0  0
 12 19  2  0  0  0  0
 13 22  1  0  0  0  0
 14 15  1  0  0  0  0
 14 21  2  0  0  0  0
 15 23  2  0  0  0  0
 16 19  1  0  0  0  0
 16 22  2  0  0  0  0
 17 23  1  0  0  0  0
 17 24  2  0  0  0  0
 18 24  1  0  0  0  0
 20 25  1  0  0  0  0
 21 24  1  0  0  0  0
 22 23  1  0  0  0  0
  4 27  1  0  0  0  0
  4 28  1  0  0  0  0
  7 29  1  0  0  0  0
  8 30  1  0  0  0  0
  8 31  1  0  0  0  0
  8 32  1  0  0  0  0
  9 33  1  0  0  0  0
  9 34  1  0  0  0  0
  9 35  1  0  0  0  0
 10 36  1  0  0  0  0
 10 37  1  0  0  0  0
 10 38  1  0  0  0  0
 11 39  1  0  0  0  0
 12 40  1  0  0  0  0
 13 41  1  0  0  0  0
 14 42  1  0  0  0  0
 15 43  1  0  0  0  0
 16 44  1  0  0  0  0
 17 45  1  0  0  0  0
M  END
$$$$
