D31_A_299
          05071912473D 1   1.00000     0.00000     0
            
 62 66  0  0  0  0            999 V2000
   -3.8260   27.7498   11.1170 O   0  0  0  0  0  0  0  0  0  0  0  0
    0.3869   26.4246    8.5471 O   0  0  0  0  0  0  0  0  0  0  0  0
    2.7969   23.8520   10.6291 N   0  0  0  0  0  0  0  0  0  0  0  0
    3.1021   29.2917    6.2303 N   0  0  0  0  0  0  0  0  0  0  0  0
    2.0535   30.3577    6.4872 N   0  0  0  0  0  0  0  0  0  0  0  0
   -1.9943   27.2981    9.9420 N   0  0  0  0  0  0  0  0  0  0  0  0
   -1.8118   24.7356   10.9671 N   0  0  0  0  0  0  0  0  0  0  0  0
    1.4971   23.5447    9.9956 C   0  0  0  0  0  0  0  0  0  0  0  0
   -1.6111   23.8074    9.8334 C   0  0  0  0  0  0  0  0  0  0  0  0
   -0.5869   25.1258   11.6941 C   0  0  0  0  0  0  0  0  0  0  0  0
   -3.0730   25.4671   11.1639 C   0  0  0  0  0  0  0  0  0  0  0  0
    5.7869   24.8491    6.9074 C   0  0  0  0  0  0  0  0  0  0  0  0
    5.3793   25.4349    5.5581 C   0  0  0  0  0  0  0  0  0  0  0  0
    4.5842   24.7432    7.8593 C   0  0  0  0  0  0  0  0  0  0  0  0
   -2.1851   31.0543    8.9905 C   0  0  0  0  0  0  0  0  0  0  0  0
   -0.8120   22.5766   10.2610 C   0  0  0  0  0  0  0  0  0  0  0  0
    0.2051   23.8931   12.1212 C   0  0  0  0  0  0  0  0  0  0  0  0
   -2.5892   29.7794    9.6065 C   0  0  0  0  0  0  0  0  0  0  0  0
    4.7291   26.8056    5.7360 C   0  0  0  0  0  0  0  0  0  0  0  0
    3.9231   26.1133    8.0516 C   0  0  0  0  0  0  0  0  0  0  0  0
   -0.9822   31.1097    8.1387 C   0  0  0  0  0  0  0  0  0  0  0  0
   -2.9876   26.9277   10.7509 C   0  0  0  0  0  0  0  0  0  0  0  0
    0.4247   27.6053    8.2189 C   0  0  0  0  0  0  0  0  0  0  0  0
   -1.7687   28.5733    9.3647 C   0  0  0  0  0  0  0  0  0  0  0  0
    2.7319   28.0586    6.8126 C   0  0  0  0  0  0  0  0  0  0  0  0
    1.0729   29.6558    7.2220 C   0  0  0  0  0  0  0  0  0  0  0  0
    0.4996   22.9158   10.9767 C   0  0  0  0  0  0  0  0  0  0  0  0
    3.5620   26.7905    6.7276 C   0  0  0  0  0  0  0  0  0  0  0  0
   -0.1783   29.9041    7.9059 C   0  0  0  0  0  0  0  0  0  0  0  0
    1.4416   28.2768    7.4346 C   0  0  0  0  0  0  0  0  0  0  0  0
   -0.5651   28.6267    8.5159 C   0  0  0  0  0  0  0  0  0  0  0  0
    3.4100   24.2585    9.9517 H   0  0  0  0  0  0  0  0  0  0  0  0
    2.6572   24.4960   11.3812 H   0  0  0  0  0  0  0  0  0  0  0  0
    2.0561   31.3175    6.2064 H   0  0  0  0  0  0  0  0  0  0  0  0
   -1.3264   26.5895    9.7146 H   0  0  0  0  0  0  0  0  0  0  0  0
    1.6509   22.9064    9.2414 H   0  0  0  0  0  0  0  0  0  0  0  0
    1.1053   24.3931    9.6397 H   0  0  0  0  0  0  0  0  0  0  0  0
   -1.1144   24.2824    9.1070 H   0  0  0  0  0  0  0  0  0  0  0  0
   -2.5033   23.5139    9.4903 H   0  0  0  0  0  0  0  0  0  0  0  0
   -0.8409   25.6502   12.5067 H   0  0  0  0  0  0  0  0  0  0  0  0
   -0.0174   25.6909   11.0972 H   0  0  0  0  0  0  0  0  0  0  0  0
   -3.3176   25.4243   12.1326 H   0  0  0  0  0  0  0  0  0  0  0  0
   -3.7858   25.0240   10.6202 H   0  0  0  0  0  0  0  0  0  0  0  0
    6.4794   25.4391    7.3225 H   0  0  0  0  0  0  0  0  0  0  0  0
    6.1694   23.9364    6.7637 H   0  0  0  0  0  0  0  0  0  0  0  0
    4.7281   24.8180    5.1161 H   0  0  0  0  0  0  0  0  0  0  0  0
    6.1918   25.5296    4.9829 H   0  0  0  0  0  0  0  0  0  0  0  0
    4.8962   24.4019    8.7459 H   0  0  0  0  0  0  0  0  0  0  0  0
    3.9155   24.1073    7.4739 H   0  0  0  0  0  0  0  0  0  0  0  0
   -2.7251   31.8809    9.1493 H   0  0  0  0  0  0  0  0  0  0  0  0
   -0.5974   22.0397    9.4451 H   0  0  0  0  0  0  0  0  0  0  0  0
   -1.3779   22.0313   10.8794 H   0  0  0  0  0  0  0  0  0  0  0  0
   -0.3196   23.4089   12.8214 H   0  0  0  0  0  0  0  0  0  0  0  0
    1.0759   24.1969   12.5077 H   0  0  0  0  0  0  0  0  0  0  0  0
   -3.4068   29.7300   10.1802 H   0  0  0  0  0  0  0  0  0  0  0  0
    4.3888   27.1144    4.8479 H   0  0  0  0  0  0  0  0  0  0  0  0
    5.4215   27.4459    6.0687 H   0  0  0  0  0  0  0  0  0  0  0  0
    4.5555   26.7055    8.5510 H   0  0  0  0  0  0  0  0  0  0  0  0
    3.0870   25.9920    8.5866 H   0  0  0  0  0  0  0  0  0  0  0  0
   -0.7124   31.9752    7.7166 H   0  0  0  0  0  0  0  0  0  0  0  0
    0.8940   22.0778   11.3539 H   0  0  0  0  0  0  0  0  0  0  0  0
    2.9276   26.1388    6.3120 H   0  0  0  0  0  0  0  0  0  0  0  0
  1 22  2  0  0  0  0
  2 23  2  0  0  0  0
  3  8  1  0  0  0  0
  4  5  1  0  0  0  0
  4 25  2  0  0  0  0
  5 26  1  0  0  0  0
  6 22  1  0  0  0  0
  6 24  1  0  0  0  0
  7  9  1  0  0  0  0
  7 10  1  0  0  0  0
  7 11  1  0  0  0  0
  8 27  1  0  0  0  0
  9 16  1  0  0  0  0
 10 17  1  0  0  0  0
 11 22  1  0  0  0  0
 12 13  1  0  0  0  0
 12 14  1  0  0  0  0
 13 19  1  0  0  0  0
 14 20  1  0  0  0  0
 15 18  1  0  0  0  0
 15 21  2  0  0  0  0
 16 27  1  0  0  0  0
 17 27  1  0  0  0  0
 18 24  2  0  0  0  0
 19 28  1  0  0  0  0
 20 28  1  0  0  0  0
 21 29  1  0  0  0  0
 23 30  1  0  0  0  0
 23 31  1  0  0  0  0
 24 31  1  0  0  0  0
 25 28  1  0  0  0  0
 25 30  1  0  0  0  0
 26 29  1  0  0  0  0
 26 30  2  0  0  0  0
 29 31  2  0  0  0  0
  3 32  1  0  0  0  0
  3 33  1  0  0  0  0
  5 34  1  0  0  0  0
  6 35  1  0  0  0  0
  8 36  1  0  0  0  0
  8 37  1  0  0  0  0
  9 38  1  0  0  0  0
  9 39  1  0  0  0  0
 10 40  1  0  0  0  0
 10 41  1  0  0  0  0
 11 42  1  0  0  0  0
 11 43  1  0  0  0  0
 12 44  1  0  0  0  0
 12 45  1  0  0  0  0
 13 46  1  0  0  0  0
 13 47  1  0  0  0  0
 14 48  1  0  0  0  0
 14 49  1  0  0  0  0
 15 50  1  0  0  0  0
 16 51  1  0  0  0  0
 16 52  1  0  0  0  0
 17 53  1  0  0  0  0
 17 54  1  0  0  0  0
 18 55  1  0  0  0  0
 19 56  1  0  0  0  0
 19 57  1  0  0  0  0
 20 58  1  0  0  0  0
 20 59  1  0  0  0  0
 21 60  1  0  0  0  0
 27 61  1  0  0  0  0
 28 62  1  0  0  0  0
M  END
$$$$
