BRY_A_1299
          05071912473D 1   1.00000     0.00000     0
            
 30 33  0  0  0  0            999 V2000
   -3.5677   28.0698   10.3357 Br  0  0  0  0  0  0  0  0  0  0  0  0
    2.4407   30.6987    6.3088 O   0  0  0  0  0  0  0  0  0  0  0  0
    0.7947   26.2819    8.7764 O   0  0  0  0  0  0  0  0  0  0  0  0
    0.3699   31.2946    7.1998 N   0  0  0  0  0  0  0  0  0  0  0  0
    3.1298   28.1234    6.8895 N   0  0  0  0  0  0  0  0  0  0  0  0
    5.4336   25.1725    6.7680 C   0  0  0  0  0  0  0  0  0  0  0  0
    4.6213   24.2820    7.5087 C   0  0  0  0  0  0  0  0  0  0  0  0
   -2.6835   30.4345    9.1047 C   0  0  0  0  0  0  0  0  0  0  0  0
    5.0312   26.5022    6.5160 C   0  0  0  0  0  0  0  0  0  0  0  0
    3.3549   24.6717    8.0067 C   0  0  0  0  0  0  0  0  0  0  0  0
   -1.7948   31.2241    8.3586 C   0  0  0  0  0  0  0  0  0  0  0  0
   -1.1509   28.5062    8.9611 C   0  0  0  0  0  0  0  0  0  0  0  0
   -2.3698   29.0901    9.3791 C   0  0  0  0  0  0  0  0  0  0  0  0
    1.3647   30.3964    6.8748 C   0  0  0  0  0  0  0  0  0  0  0  0
    1.7342   26.6965    8.1301 C   0  0  0  0  0  0  0  0  0  0  0  0
    3.7469   26.8728    7.0395 C   0  0  0  0  0  0  0  0  0  0  0  0
   -0.6553   30.6493    7.9139 C   0  0  0  0  0  0  0  0  0  0  0  0
    1.8861   28.0958    7.5429 C   0  0  0  0  0  0  0  0  0  0  0  0
    2.9717   25.9761    7.7584 C   0  0  0  0  0  0  0  0  0  0  0  0
   -0.2814   29.3201    8.2093 C   0  0  0  0  0  0  0  0  0  0  0  0
    1.0717   29.1217    7.5754 C   0  0  0  0  0  0  0  0  0  0  0  0
    0.3767   32.2658    6.9617 H   0  0  0  0  0  0  0  0  0  0  0  0
    3.5121   28.9061    6.3983 H   0  0  0  0  0  0  0  0  0  0  0  0
    6.3129   24.8528    6.4148 H   0  0  0  0  0  0  0  0  0  0  0  0
    4.9500   23.3542    7.6849 H   0  0  0  0  0  0  0  0  0  0  0  0
   -3.5395   30.8270    9.4412 H   0  0  0  0  0  0  0  0  0  0  0  0
    5.6037   27.1442    6.0059 H   0  0  0  0  0  0  0  0  0  0  0  0
    2.7690   24.0373    8.5110 H   0  0  0  0  0  0  0  0  0  0  0  0
   -1.9985   32.1832    8.1619 H   0  0  0  0  0  0  0  0  0  0  0  0
   -0.9179   27.5607    9.1885 H   0  0  0  0  0  0  0  0  0  0  0  0
  1 13  1  0  0  0  0
  2 14  2  0  0  0  0
  3 15  2  0  0  0  0
  4 14  1  0  0  0  0
  4 17  1  0  0  0  0
  5 16  1  0  0  0  0
  5 18  1  0  0  0  0
  6  7  2  0  0  0  0
  6  9  1  0  0  0  0
  7 10  1  0  0  0  0
  8 11  1  0  0  0  0
  8 13  2  0  0  0  0
  9 16  2  0  0  0  0
 10 19  2  0  0  0  0
 11 17  2  0  0  0  0
 12 13  1  0  0  0  0
 12 20  2  0  0  0  0
 14 21  1  0  0  0  0
 15 18  1  0  0  0  0
 15 19  1  0  0  0  0
 16 19  1  0  0  0  0
 17 20  1  0  0  0  0
 18 21  2  0  0  0  0
 20 21  1  0  0  0  0
  4 22  1  0  0  0  0
  5 23  1  0  0  0  0
  6 24  1  0  0  0  0
  7 25  1  0  0  0  0
  8 26  1  0  0  0  0
  9 27  1  0  0  0  0
 10 28  1  0  0  0  0
 11 29  1  0  0  0  0
 12 30  1  0  0  0  0
M  END
$$$$
