U73_A_300
          05071912473D 1   1.00000     0.00000     0
            
 33 34  0  0  0  0            999 V2000
    0.5460   28.4894    7.8780 S   0  0  0  0  0  0  0  0  0  0  0  0
    2.5427   26.5949    7.7499 O   0  0  0  0  0  0  0  0  0  0  0  0
    5.0933   25.3941    3.3879 N   0  0  0  0  0  0  0  0  0  0  0  0
    1.6500   30.5876    6.6640 N   0  0  0  0  0  0  0  0  0  0  0  0
    3.1393   28.5282    6.7913 N   0  0  0  0  0  0  0  0  0  0  0  0
   -1.5862   30.6802    9.6382 C   0  0  0  0  0  0  0  0  0  0  0  0
   -2.6261   29.0299    8.0058 C   0  0  0  0  0  0  0  0  0  0  0  0
    4.8600   24.0850    3.5361 C   0  0  0  0  0  0  0  0  0  0  0  0
    5.0673   26.2330    4.4238 C   0  0  0  0  0  0  0  0  0  0  0  0
    0.4484   30.8788    7.0102 C   0  0  0  0  0  0  0  0  0  0  0  0
    4.6031   23.5551    4.7727 C   0  0  0  0  0  0  0  0  0  0  0  0
    4.5664   24.4046    5.8782 C   0  0  0  0  0  0  0  0  0  0  0  0
    4.7395   26.7093    6.8296 C   0  0  0  0  0  0  0  0  0  0  0  0
    1.8417   29.2615    6.9909 C   0  0  0  0  0  0  0  0  0  0  0  0
    3.3660   27.2659    7.1312 C   0  0  0  0  0  0  0  0  0  0  0  0
   -0.2683   29.9439    7.6549 C   0  0  0  0  0  0  0  0  0  0  0  0
   -1.6694   30.2049    8.1723 C   0  0  0  0  0  0  0  0  0  0  0  0
    4.7920   25.7555    5.6824 C   0  0  0  0  0  0  0  0  0  0  0  0
    3.8920   29.0326    6.3682 H   0  0  0  0  0  0  0  0  0  0  0  0
   -0.9505   31.4493    9.7036 H   0  0  0  0  0  0  0  0  0  0  0  0
   -2.4923   30.9695    9.9467 H   0  0  0  0  0  0  0  0  0  0  0  0
   -1.2619   29.9297   10.2140 H   0  0  0  0  0  0  0  0  0  0  0  0
   -2.6508   28.7537    7.0450 H   0  0  0  0  0  0  0  0  0  0  0  0
   -2.3124   28.2627    8.5652 H   0  0  0  0  0  0  0  0  0  0  0  0
   -3.5428   29.3025    8.2979 H   0  0  0  0  0  0  0  0  0  0  0  0
    4.8734   23.4866    2.7350 H   0  0  0  0  0  0  0  0  0  0  0  0
    5.2477   27.2068    4.2852 H   0  0  0  0  0  0  0  0  0  0  0  0
    0.0574   31.7761    6.8057 H   0  0  0  0  0  0  0  0  0  0  0  0
    4.4443   22.5738    4.8813 H   0  0  0  0  0  0  0  0  0  0  0  0
    4.3811   24.0450    6.7927 H   0  0  0  0  0  0  0  0  0  0  0  0
    5.0679   26.2329    7.6452 H   0  0  0  0  0  0  0  0  0  0  0  0
    5.3475   27.4763    6.6242 H   0  0  0  0  0  0  0  0  0  0  0  0
   -2.0421   30.9642    7.6388 H   0  0  0  0  0  0  0  0  0  0  0  0
  1 14  1  0  0  0  0
  1 16  1  0  0  0  0
  2 15  2  0  0  0  0
  3  8  2  0  0  0  0
  3  9  1  0  0  0  0
  4 10  1  0  0  0  0
  4 14  2  0  0  0  0
  5 14  1  0  0  0  0
  5 15  1  0  0  0  0
  6 17  1  0  0  0  0
  7 17  1  0  0  0  0
  8 11  1  0  0  0  0
  9 18  2  0  0  0  0
 10 16  2  0  0  0  0
 11 12  2  0  0  0  0
 12 18  1  0  0  0  0
 13 15  1  0  0  0  0
 13 18  1  0  0  0  0
 16 17  1  0  0  0  0
  5 19  1  0  0  0  0
  6 20  1  0  0  0  0
  6 21  1  0  0  0  0
  6 22  1  0  0  0  0
  7 23  1  0  0  0  0
  7 24  1  0  0  0  0
  7 25  1  0  0  0  0
  8 26  1  0  0  0  0
  9 27  1  0  0  0  0
 10 28  1  0  0  0  0
 11 29  1  0  0  0  0
 12 30  1  0  0  0  0
 13 31  1  0  0  0  0
 13 32  1  0  0  0  0
 17 33  1  0  0  0  0
M  END
$$$$
