MTW_A_1298
          05071912473D 1   1.00000     0.00000     0
            
 43 46  0  0  0  0            999 V2000
    2.1762   24.2798    9.9155 O   0  5  0  0  0  0  0  0  0  0  0  0
    0.9326   24.1752    7.8141 O   0  0  0  0  0  0  0  0  0  0  0  0
   -2.5556   24.9945   11.2096 N   0  0  0  0  0  0  0  0  0  0  0  0
   -1.4456   23.2961   10.4976 N   0  0  0  0  0  0  0  0  0  0  0  0
    1.7680   30.8498    6.6268 N   0  0  0  0  0  0  0  0  0  0  0  0
    2.9008   28.8192    6.3075 N   0  0  0  0  0  0  0  0  0  0  0  0
    1.0558   28.9764    7.7460 N   0  0  0  0  0  0  0  0  0  0  0  0
    2.0699   24.6422    8.5239 N   0  3  0  0  0  0  0  0  0  0  0  0
   -1.3602   25.1946   11.4340 N   0  0  0  0  0  0  0  0  0  0  0  0
   -2.6735   23.8045   10.6268 C   0  0  0  0  0  0  0  0  0  0  0  0
   -0.5989   24.1962   10.9900 C   0  0  0  0  0  0  0  0  0  0  0  0
    0.8376   31.6311    7.1693 C   0  0  0  0  0  0  0  0  0  0  0  0
    4.8304   25.7182    6.4289 C   0  0  0  0  0  0  0  0  0  0  0  0
   -2.8406   29.2213   10.4604 C   0  0  0  0  0  0  0  0  0  0  0  0
   -0.8256   26.4271   12.0372 C   0  0  0  0  0  0  0  0  0  0  0  0
    4.4029   27.0003    6.0945 C   0  0  0  0  0  0  0  0  0  0  0  0
   -0.0760   31.0629    8.0420 C   0  0  0  0  0  0  0  0  0  0  0  0
    4.0658   24.9174    7.2749 C   0  0  0  0  0  0  0  0  0  0  0  0
   -2.4337   28.1471   11.2387 C   0  0  0  0  0  0  0  0  0  0  0  0
   -1.9840   29.7289    9.4925 C   0  0  0  0  0  0  0  0  0  0  0  0
    2.4860   26.7299    7.4602 C   0  0  0  0  0  0  0  0  0  0  0  0
   -0.3306   28.0872   10.1100 C   0  0  0  0  0  0  0  0  0  0  0  0
    1.9223   29.5375    6.8789 C   0  0  0  0  0  0  0  0  0  0  0  0
    3.2305   27.5507    6.6110 C   0  0  0  0  0  0  0  0  0  0  0  0
    0.0881   29.7057    8.3344 C   0  0  0  0  0  0  0  0  0  0  0  0
    2.8825   25.4308    7.8014 C   0  0  0  0  0  0  0  0  0  0  0  0
   -1.1666   27.5978   11.1090 C   0  0  0  0  0  0  0  0  0  0  0  0
   -0.7432   29.1382    9.2958 C   0  0  0  0  0  0  0  0  0  0  0  0
    3.4339   29.2679    5.5902 H   0  0  0  0  0  0  0  0  0  0  0  0
   -3.5266   23.3698   10.3380 H   0  0  0  0  0  0  0  0  0  0  0  0
    0.3988   24.1358   11.0203 H   0  0  0  0  0  0  0  0  0  0  0  0
    0.7988   32.6064    6.9520 H   0  0  0  0  0  0  0  0  0  0  0  0
    5.6919   25.3698    6.0595 H   0  0  0  0  0  0  0  0  0  0  0  0
   -3.7446   29.6271   10.5955 H   0  0  0  0  0  0  0  0  0  0  0  0
    0.1665   26.3524   12.1382 H   0  0  0  0  0  0  0  0  0  0  0  0
   -1.2419   26.5735   12.9345 H   0  0  0  0  0  0  0  0  0  0  0  0
    4.9550   27.5446    5.4629 H   0  0  0  0  0  0  0  0  0  0  0  0
   -0.8184   31.5987    8.4441 H   0  0  0  0  0  0  0  0  0  0  0  0
    4.3617   23.9892    7.5004 H   0  0  0  0  0  0  0  0  0  0  0  0
   -3.0680   27.7603   11.9080 H   0  0  0  0  0  0  0  0  0  0  0  0
   -2.2594   30.5157    8.9401 H   0  0  0  0  0  0  0  0  0  0  0  0
    1.6324   27.0851    7.8415 H   0  0  0  0  0  0  0  0  0  0  0  0
    0.5732   27.6809    9.9760 H   0  0  0  0  0  0  0  0  0  0  0  0
  1  8  1  0  0  0  0
  2  8  2  0  0  0  0
  3  9  1  0  0  0  0
  3 10  2  0  0  0  0
  4 10  1  0  0  0  0
  4 11  2  0  0  0  0
  5 12  2  0  0  0  0
  5 23  1  0  0  0  0
  6 23  1  0  0  0  0
  6 24  1  0  0  0  0
  7 23  2  0  0  0  0
  7 25  1  0  0  0  0
  8 26  1  0  0  0  0
  9 11  1  0  0  0  0
  9 15  1  0  0  0  0
 12 17  1  0  0  0  0
 13 16  1  0  0  0  0
 13 18  2  0  0  0  0
 14 19  2  0  0  0  0
 14 20  1  0  0  0  0
 15 27  1  0  0  0  0
 16 24  2  0  0  0  0
 17 25  2  0  0  0  0
 18 26  1  0  0  0  0
 19 27  1  0  0  0  0
 20 28  2  0  0  0  0
 21 24  1  0  0  0  0
 21 26  2  0  0  0  0
 22 27  2  0  0  0  0
 22 28  1  0  0  0  0
 25 28  1  0  0  0  0
  6 29  1  0  0  0  0
 10 30  1  0  0  0  0
 11 31  1  0  0  0  0
 12 32  1  0  0  0  0
 13 33  1  0  0  0  0
 14 34  1  0  0  0  0
 15 35  1  0  0  0  0
 15 36  1  0  0  0  0
 16 37  1  0  0  0  0
 17 38  1  0  0  0  0
 18 39  1  0  0  0  0
 19 40  1  0  0  0  0
 20 41  1  0  0  0  0
 21 42  1  0  0  0  0
 22 43  1  0  0  0  0
M  CHG  2   1  -1   8   1
M  END
$$$$
