SCJ_A_501
          05071912473D 1   1.00000     0.00000     0
            
 38 41  0  0  0  0            999 V2000
   -1.8889   31.2013    8.4858 Br  0  0  0  0  0  0  0  0  0  0  0  0
    1.6823   30.3270    6.8230 N   0  0  0  0  0  0  0  0  0  0  0  0
    4.7992   23.7676    5.6441 N   0  0  0  0  0  0  0  0  0  0  0  0
    3.4316   28.0501    7.0587 N   0  0  0  0  0  0  0  0  0  0  0  0
   -0.2631   28.3256    9.0870 N   0  0  0  0  0  0  0  0  0  0  0  0
    1.4457   29.1958    7.5893 N   0  0  0  0  0  0  0  0  0  0  0  0
    5.0138   24.2002    4.3974 C   0  0  0  0  0  0  0  0  0  0  0  0
    0.6346   31.1144    7.0357 C   0  0  0  0  0  0  0  0  0  0  0  0
    4.6367   24.7000    6.5910 C   0  0  0  0  0  0  0  0  0  0  0  0
    4.4792   27.0924    7.4636 C   0  0  0  0  0  0  0  0  0  0  0  0
    5.0867   25.5475    4.0548 C   0  0  0  0  0  0  0  0  0  0  0  0
   -1.0433   24.2149   11.8960 C   0  0  0  0  0  0  0  0  0  0  0  0
   -1.1534   25.5607   12.2263 C   0  0  0  0  0  0  0  0  0  0  0  0
   -0.4267   23.8467   10.6955 C   0  0  0  0  0  0  0  0  0  0  0  0
    4.9000   26.5017    5.0503 C   0  0  0  0  0  0  0  0  0  0  0  0
   -0.6547   26.5433   11.3536 C   0  0  0  0  0  0  0  0  0  0  0  0
    0.0570   24.8273    9.8243 C   0  0  0  0  0  0  0  0  0  0  0  0
    1.7172   27.0901    8.5746 C   0  0  0  0  0  0  0  0  0  0  0  0
    2.2349   28.0845    7.7476 C   0  0  0  0  0  0  0  0  0  0  0  0
   -0.2855   30.4970    7.8910 C   0  0  0  0  0  0  0  0  0  0  0  0
    0.2562   29.2858    8.2486 C   0  0  0  0  0  0  0  0  0  0  0  0
    0.4622   27.2371    9.2421 C   0  0  0  0  0  0  0  0  0  0  0  0
    4.6718   26.0842    6.3581 C   0  0  0  0  0  0  0  0  0  0  0  0
   -0.0593   26.1938   10.1359 C   0  0  0  0  0  0  0  0  0  0  0  0
    3.5873   28.6704    6.2899 H   0  0  0  0  0  0  0  0  0  0  0  0
    5.1280   23.5202    3.6731 H   0  0  0  0  0  0  0  0  0  0  0  0
    0.5186   32.0249    6.6388 H   0  0  0  0  0  0  0  0  0  0  0  0
    4.4794   24.3893    7.5284 H   0  0  0  0  0  0  0  0  0  0  0  0
    4.1997   26.6231    8.3012 H   0  0  0  0  0  0  0  0  0  0  0  0
    5.3365   27.5811    7.6255 H   0  0  0  0  0  0  0  0  0  0  0  0
    5.2698   25.8242    3.1114 H   0  0  0  0  0  0  0  0  0  0  0  0
   -1.4027   23.5145   12.5127 H   0  0  0  0  0  0  0  0  0  0  0  0
   -1.5878   25.8302   13.0857 H   0  0  0  0  0  0  0  0  0  0  0  0
   -0.3316   22.8795   10.4600 H   0  0  0  0  0  0  0  0  0  0  0  0
    4.9295   27.4764    4.8284 H   0  0  0  0  0  0  0  0  0  0  0  0
   -0.7263   27.5081   11.6069 H   0  0  0  0  0  0  0  0  0  0  0  0
    0.4921   24.5530    8.9667 H   0  0  0  0  0  0  0  0  0  0  0  0
    2.2398   26.2476    8.7052 H   0  0  0  0  0  0  0  0  0  0  0  0
  1 20  1  0  0  0  0
  2  6  1  0  0  0  0
  2  8  2  0  0  0  0
  3  7  2  0  0  0  0
  3  9  1  0  0  0  0
  4 10  1  0  0  0  0
  4 19  1  0  0  0  0
  5 21  1  0  0  0  0
  5 22  2  0  0  0  0
  6 19  1  0  0  0  0
  6 21  1  0  0  0  0
  7 11  1  0  0  0  0
  8 20  1  0  0  0  0
  9 23  2  0  0  0  0
 10 23  1  0  0  0  0
 11 15  2  0  0  0  0
 12 13  2  0  0  0  0
 12 14  1  0  0  0  0
 13 16  1  0  0  0  0
 14 17  2  0  0  0  0
 15 23  1  0  0  0  0
 16 24  2  0  0  0  0
 17 24  1  0  0  0  0
 18 19  2  0  0  0  0
 18 22  1  0  0  0  0
 20 21  2  0  0  0  0
 22 24  1  0  0  0  0
  4 25  1  0  0  0  0
  7 26  1  0  0  0  0
  8 27  1  0  0  0  0
  9 28  1  0  0  0  0
 10 29  1  0  0  0  0
 10 30  1  0  0  0  0
 11 31  1  0  0  0  0
 12 32  1  0  0  0  0
 13 33  1  0  0  0  0
 14 34  1  0  0  0  0
 15 35  1  0  0  0  0
 16 36  1  0  0  0  0
 17 37  1  0  0  0  0
 18 38  1  0  0  0  0
M  END
$$$$
