SCW_A_501
          05071912473D 1   1.00000     0.00000     0
            
 38 41  0  0  0  0            999 V2000
   -1.8093   31.1092    8.5290 Br  0  0  0  0  0  0  0  0  0  0  0  0
    4.5781   23.6252    5.7804 N   0  0  0  0  0  0  0  0  0  0  0  0
    5.0903   25.3224    4.1449 N   0  0  0  0  0  0  0  0  0  0  0  0
    1.8127   30.3261    6.8504 N   0  0  0  0  0  0  0  0  0  0  0  0
    3.5755   28.0126    7.0648 N   0  0  0  0  0  0  0  0  0  0  0  0
    0.3638   29.2722    8.2234 N   0  0  0  0  0  0  0  0  0  0  0  0
    4.8851   24.0584    4.5377 C   0  0  0  0  0  0  0  0  0  0  0  0
    4.4957   24.5827    6.7261 C   0  0  0  0  0  0  0  0  0  0  0  0
    4.9842   26.2543    5.0988 C   0  0  0  0  0  0  0  0  0  0  0  0
    0.7318   31.1270    7.0864 C   0  0  0  0  0  0  0  0  0  0  0  0
    4.5835   27.0153    7.4784 C   0  0  0  0  0  0  0  0  0  0  0  0
   -0.7319   23.9731   11.8160 C   0  0  0  0  0  0  0  0  0  0  0  0
   -0.9836   25.3093   12.1174 C   0  0  0  0  0  0  0  0  0  0  0  0
   -0.0368   23.6416   10.6437 C   0  0  0  0  0  0  0  0  0  0  0  0
   -0.1264   28.2354    9.0170 C   0  0  0  0  0  0  0  0  0  0  0  0
   -0.5435   26.3233   11.2522 C   0  0  0  0  0  0  0  0  0  0  0  0
    0.3896   24.6506    9.7727 C   0  0  0  0  0  0  0  0  0  0  0  0
    1.8599   26.9713    8.4941 C   0  0  0  0  0  0  0  0  0  0  0  0
   -0.1766   30.4732    7.9274 C   0  0  0  0  0  0  0  0  0  0  0  0
    1.5574   29.1967    7.5723 C   0  0  0  0  0  0  0  0  0  0  0  0
    2.3642   28.0060    7.6983 C   0  0  0  0  0  0  0  0  0  0  0  0
    4.6819   25.9468    6.4325 C   0  0  0  0  0  0  0  0  0  0  0  0
    0.1268   26.0048   10.0612 C   0  0  0  0  0  0  0  0  0  0  0  0
    0.6066   27.0847    9.1599 C   0  0  0  0  0  0  0  0  0  0  0  0
    3.7736   28.6741    6.3415 H   0  0  0  0  0  0  0  0  0  0  0  0
    4.9687   23.3555    3.8313 H   0  0  0  0  0  0  0  0  0  0  0  0
    4.2955   24.3146    7.6685 H   0  0  0  0  0  0  0  0  0  0  0  0
    5.1267   27.2121    4.8495 H   0  0  0  0  0  0  0  0  0  0  0  0
    0.6075   32.0464    6.7131 H   0  0  0  0  0  0  0  0  0  0  0  0
    4.3109   26.6062    8.3492 H   0  0  0  0  0  0  0  0  0  0  0  0
    5.4719   27.4623    7.5838 H   0  0  0  0  0  0  0  0  0  0  0  0
   -1.0458   23.2520   12.4336 H   0  0  0  0  0  0  0  0  0  0  0  0
   -1.4793   25.5471   12.9527 H   0  0  0  0  0  0  0  0  0  0  0  0
    0.1542   22.6835   10.4300 H   0  0  0  0  0  0  0  0  0  0  0  0
   -1.0080   28.3303    9.4795 H   0  0  0  0  0  0  0  0  0  0  0  0
   -0.7090   27.2812   11.4867 H   0  0  0  0  0  0  0  0  0  0  0  0
    0.8850   24.4086    8.9385 H   0  0  0  0  0  0  0  0  0  0  0  0
    2.3929   26.1315    8.5975 H   0  0  0  0  0  0  0  0  0  0  0  0
  1 19  1  0  0  0  0
  2  7  2  0  0  0  0
  2  8  1  0  0  0  0
  3  7  1  0  0  0  0
  3  9  2  0  0  0  0
  4 10  1  0  0  0  0
  4 20  2  0  0  0  0
  5 11  1  0  0  0  0
  5 21  1  0  0  0  0
  6 15  1  0  0  0  0
  6 19  1  0  0  0  0
  6 20  1  0  0  0  0
  8 22  2  0  0  0  0
  9 22  1  0  0  0  0
 10 19  2  0  0  0  0
 11 22  1  0  0  0  0
 12 13  2  0  0  0  0
 12 14  1  0  0  0  0
 13 16  1  0  0  0  0
 14 17  2  0  0  0  0
 15 24  2  0  0  0  0
 16 23  2  0  0  0  0
 17 23  1  0  0  0  0
 18 21  2  0  0  0  0
 18 24  1  0  0  0  0
 20 21  1  0  0  0  0
 23 24  1  0  0  0  0
  5 25  1  0  0  0  0
  7 26  1  0  0  0  0
  8 27  1  0  0  0  0
  9 28  1  0  0  0  0
 10 29  1  0  0  0  0
 11 30  1  0  0  0  0
 11 31  1  0  0  0  0
 12 32  1  0  0  0  0
 13 33  1  0  0  0  0
 14 34  1  0  0  0  0
 15 35  1  0  0  0  0
 16 36  1  0  0  0  0
 17 37  1  0  0  0  0
 18 38  1  0  0  0  0
M  END
$$$$
