740_A_500
          05071912473D 1   1.00000     0.00000     0
            
 59 63  0  0  0  0            999 V2000
   -2.2223   27.4850   11.1968 S   0  0  0  0  0  0  0  0  0  0  0  0
   -1.3686   28.4051   12.0340 O   0  0  0  0  0  0  0  0  0  0  0  0
   -3.6138   27.8950   10.8148 O   0  0  0  0  0  0  0  0  0  0  0  0
    2.8043   26.7843    7.7662 O   0  0  0  0  0  0  0  0  0  0  0  0
    1.8053   30.9423    6.4505 N   0  0  0  0  0  0  0  0  0  0  0  0
    0.6059   31.4591    6.8102 N   0  0  0  0  0  0  0  0  0  0  0  0
    3.1573   28.8373    6.7382 N   0  0  0  0  0  0  0  0  0  0  0  0
   -1.5302   27.2901    9.7637 N   0  0  0  0  0  0  0  0  0  0  0  0
    5.0321   22.6068    3.1748 N   0  0  0  0  0  0  0  0  0  0  0  0
   -2.1348   25.8147   11.8102 C   0  0  0  0  0  0  0  0  0  0  0  0
   -1.4945   25.8839    9.3565 C   0  0  0  0  0  0  0  0  0  0  0  0
    4.1465   22.6469    1.9493 C   0  0  0  0  0  0  0  0  0  0  0  0
    5.9981   21.5028    3.4329 C   0  0  0  0  0  0  0  0  0  0  0  0
   -2.1562   25.0341   10.4949 C   0  0  0  0  0  0  0  0  0  0  0  0
    4.0912   21.3275    1.1164 C   0  0  0  0  0  0  0  0  0  0  0  0
    5.7592   20.2212    2.6015 C   0  0  0  0  0  0  0  0  0  0  0  0
    5.4460   20.5928    1.1443 C   0  0  0  0  0  0  0  0  0  0  0  0
   -1.3884   30.6455    8.1546 C   0  0  0  0  0  0  0  0  0  0  0  0
   -1.8581   29.5342    8.8914 C   0  0  0  0  0  0  0  0  0  0  0  0
    4.6675   23.4969    5.4839 C   0  0  0  0  0  0  0  0  0  0  0  0
    5.2691   24.9831    3.6173 C   0  0  0  0  0  0  0  0  0  0  0  0
    4.6475   24.6436    6.3649 C   0  0  0  0  0  0  0  0  0  0  0  0
    5.2494   26.0876    4.4705 C   0  0  0  0  0  0  0  0  0  0  0  0
    4.9296   27.1708    6.6973 C   0  0  0  0  0  0  0  0  0  0  0  0
    0.2391   28.2982    8.4137 C   0  0  0  0  0  0  0  0  0  0  0  0
    3.4908   27.5675    7.1252 C   0  0  0  0  0  0  0  0  0  0  0  0
    1.9603   29.7065    6.9233 C   0  0  0  0  0  0  0  0  0  0  0  0
   -0.1299   30.5870    7.5609 C   0  0  0  0  0  0  0  0  0  0  0  0
   -1.0463   28.3521    9.0295 C   0  0  0  0  0  0  0  0  0  0  0  0
    4.9859   23.6890    4.0892 C   0  0  0  0  0  0  0  0  0  0  0  0
    4.9438   25.9403    5.8324 C   0  0  0  0  0  0  0  0  0  0  0  0
    0.7295   29.3881    7.6756 C   0  0  0  0  0  0  0  0  0  0  0  0
    0.2947   32.3746    6.5552 H   0  0  0  0  0  0  0  0  0  0  0  0
    3.8810   29.2834    6.2116 H   0  0  0  0  0  0  0  0  0  0  0  0
   -2.9217   25.5908   12.3853 H   0  0  0  0  0  0  0  0  0  0  0  0
   -1.2911   25.6529   12.3220 H   0  0  0  0  0  0  0  0  0  0  0  0
   -0.5471   25.5931    9.2228 H   0  0  0  0  0  0  0  0  0  0  0  0
   -2.0033   25.7643    8.5040 H   0  0  0  0  0  0  0  0  0  0  0  0
    4.4810   23.3751    1.3511 H   0  0  0  0  0  0  0  0  0  0  0  0
    3.2167   22.8618    2.2481 H   0  0  0  0  0  0  0  0  0  0  0  0
    5.9409   21.2600    4.4013 H   0  0  0  0  0  0  0  0  0  0  0  0
    6.9170   21.8396    3.2274 H   0  0  0  0  0  0  0  0  0  0  0  0
   -3.1030   24.8287   10.2471 H   0  0  0  0  0  0  0  0  0  0  0  0
   -1.6486   24.1801   10.6084 H   0  0  0  0  0  0  0  0  0  0  0  0
    3.8599   21.5494    0.1691 H   0  0  0  0  0  0  0  0  0  0  0  0
    3.3877   20.7291    1.4999 H   0  0  0  0  0  0  0  0  0  0  0  0
    4.9881   19.7148    2.9874 H   0  0  0  0  0  0  0  0  0  0  0  0
    6.5799   19.6506    2.6290 H   0  0  0  0  0  0  0  0  0  0  0  0
    6.1629   21.1905    0.7855 H   0  0  0  0  0  0  0  0  0  0  0  0
    5.3933   19.7640    0.5872 H   0  0  0  0  0  0  0  0  0  0  0  0
   -1.9538   31.4649    8.0606 H   0  0  0  0  0  0  0  0  0  0  0  0
   -2.7609   29.5690    9.3202 H   0  0  0  0  0  0  0  0  0  0  0  0
    4.4636   22.5835    5.8361 H   0  0  0  0  0  0  0  0  0  0  0  0
    5.4891   25.1147    2.6507 H   0  0  0  0  0  0  0  0  0  0  0  0
    4.4293   24.5327    7.3345 H   0  0  0  0  0  0  0  0  0  0  0  0
    5.4557   26.9959    4.1066 H   0  0  0  0  0  0  0  0  0  0  0  0
    5.4730   26.9943    7.5180 H   0  0  0  0  0  0  0  0  0  0  0  0
    5.3345   27.9289    6.1861 H   0  0  0  0  0  0  0  0  0  0  0  0
    0.7980   27.4744    8.5086 H   0  0  0  0  0  0  0  0  0  0  0  0
  1  2  2  0  0  0  0
  1  3  2  0  0  0  0
  1  8  1  0  0  0  0
  1 10  1  0  0  0  0
  4 26  2  0  0  0  0
  5  6  1  0  0  0  0
  5 27  2  0  0  0  0
  6 28  1  0  0  0  0
  7 26  1  0  0  0  0
  7 27  1  0  0  0  0
  8 11  1  0  0  0  0
  8 29  1  0  0  0  0
  9 12  1  0  0  0  0
  9 13  1  0  0  0  0
  9 30  1  0  0  0  0
 10 14  1  0  0  0  0
 11 14  1  0  0  0  0
 12 15  1  0  0  0  0
 13 16  1  0  0  0  0
 15 17  1  0  0  0  0
 16 17  1  0  0  0  0
 18 19  1  0  0  0  0
 18 28  2  0  0  0  0
 19 29  2  0  0  0  0
 20 22  2  0  0  0  0
 20 30  1  0  0  0  0
 21 23  1  0  0  0  0
 21 30  2  0  0  0  0
 22 31  1  0  0  0  0
 23 31  2  0  0  0  0
 24 26  1  0  0  0  0
 24 31  1  0  0  0  0
 25 29  1  0  0  0  0
 25 32  2  0  0  0  0
 27 32  1  0  0  0  0
 28 32  1  0  0  0  0
  6 33  1  0  0  0  0
  7 34  1  0  0  0  0
 10 35  1  0  0  0  0
 10 36  1  0  0  0  0
 11 37  1  0  0  0  0
 11 38  1  0  0  0  0
 12 39  1  0  0  0  0
 12 40  1  0  0  0  0
 13 41  1  0  0  0  0
 13 42  1  0  0  0  0
 14 43  1  0  0  0  0
 14 44  1  0  0  0  0
 15 45  1  0  0  0  0
 15 46  1  0  0  0  0
 16 47  1  0  0  0  0
 16 48  1  0  0  0  0
 17 49  1  0  0  0  0
 17 50  1  0  0  0  0
 18 51  1  0  0  0  0
 19 52  1  0  0  0  0
 20 53  1  0  0  0  0
 21 54  1  0  0  0  0
 22 55  1  0  0  0  0
 23 56  1  0  0  0  0
 24 57  1  0  0  0  0
 24 58  1  0  0  0  0
 25 59  1  0  0  0  0
M  END
$$$$
