C95_C_1297
          05071912473D 1   1.00000     0.00000     0
            
 32 34  0  0  0  0            999 V2000
   -1.4448   28.1435   10.0603 S   0  0  0  0  0  0  0  0  0  0  0  0
    5.8496   24.4553    6.2674 O   0  0  0  0  0  0  0  0  0  0  0  0
    4.8778   23.5899    8.0139 O   0  0  0  0  0  0  0  0  0  0  0  0
   -3.5417   31.1456   10.7975 O   0  0  0  0  0  0  0  0  0  0  0  0
    0.2569   28.9654    8.2086 O   0  0  0  0  0  0  0  0  0  0  0  0
   -2.5170   26.8038   12.0970 N   0  0  0  0  0  0  0  0  0  0  0  0
   -3.2297   29.0245   11.6083 N   0  0  0  0  0  0  0  0  0  0  0  0
    0.2428   30.8384    7.1337 C   0  0  0  0  0  0  0  0  0  0  0  0
    1.2914   30.0926    6.6907 C   0  0  0  0  0  0  0  0  0  0  0  0
    4.1353   26.7326    6.2327 C   0  0  0  0  0  0  0  0  0  0  0  0
    3.0414   25.7274    8.1432 C   0  0  0  0  0  0  0  0  0  0  0  0
    3.2479   27.8208    6.2979 C   0  0  0  0  0  0  0  0  0  0  0  0
    2.1474   26.7800    8.1817 C   0  0  0  0  0  0  0  0  0  0  0  0
   -1.5941   30.5178    8.8387 C   0  0  0  0  0  0  0  0  0  0  0  0
    4.9783   24.5211    7.1388 C   0  0  0  0  0  0  0  0  0  0  0  0
   -2.4651   27.9272   11.3686 C   0  0  0  0  0  0  0  0  0  0  0  0
   -2.0295   29.7133    9.7918 C   0  0  0  0  0  0  0  0  0  0  0  0
   -2.9864   30.0530   10.7375 C   0  0  0  0  0  0  0  0  0  0  0  0
   -0.3957   30.1224    8.0658 C   0  0  0  0  0  0  0  0  0  0  0  0
    1.2846   28.9390    7.3692 C   0  0  0  0  0  0  0  0  0  0  0  0
    4.0288   25.6861    7.1738 C   0  0  0  0  0  0  0  0  0  0  0  0
    2.2434   27.8271    7.2668 C   0  0  0  0  0  0  0  0  0  0  0  0
    5.9293   25.1810    5.5841 H   0  0  0  0  0  0  0  0  0  0  0  0
   -3.1498   26.7368   12.8684 H   0  0  0  0  0  0  0  0  0  0  0  0
   -1.9229   26.0323   11.8692 H   0  0  0  0  0  0  0  0  0  0  0  0
   -0.0053   31.7548    6.8195 H   0  0  0  0  0  0  0  0  0  0  0  0
    1.9485   30.3585    5.9854 H   0  0  0  0  0  0  0  0  0  0  0  0
    4.8389   26.7000    5.5228 H   0  0  0  0  0  0  0  0  0  0  0  0
    2.9750   24.9925    8.8181 H   0  0  0  0  0  0  0  0  0  0  0  0
    3.3355   28.5829    5.6563 H   0  0  0  0  0  0  0  0  0  0  0  0
    1.4245   26.7908    8.8726 H   0  0  0  0  0  0  0  0  0  0  0  0
   -2.0655   31.3778    8.6431 H   0  0  0  0  0  0  0  0  0  0  0  0
  1 16  1  0  0  0  0
  1 17  1  0  0  0  0
  2 15  1  0  0  0  0
  3 15  2  0  0  0  0
  4 18  2  0  0  0  0
  5 19  1  0  0  0  0
  5 20  1  0  0  0  0
  6 16  1  0  0  0  0
  7 16  2  0  0  0  0
  7 18  1  0  0  0  0
  8  9  1  0  0  0  0
  8 19  2  0  0  0  0
  9 20  2  0  0  0  0
 10 12  1  0  0  0  0
 10 21  2  0  0  0  0
 11 13  2  0  0  0  0
 11 21  1  0  0  0  0
 12 22  2  0  0  0  0
 13 22  1  0  0  0  0
 14 17  2  0  0  0  0
 14 19  1  0  0  0  0
 15 21  1  0  0  0  0
 17 18  1  0  0  0  0
 20 22  1  0  0  0  0
  2 23  1  0  0  0  0
  6 24  1  0  0  0  0
  6 25  1  0  0  0  0
  8 26  1  0  0  0  0
  9 27  1  0  0  0  0
 10 28  1  0  0  0  0
 11 29  1  0  0  0  0
 12 30  1  0  0  0  0
 13 31  1  0  0  0  0
 14 32  1  0  0  0  0
M  END
$$$$
