C96_A_1299
          05071912473D 1   1.00000     0.00000     0
            
 37 39  0  0  0  0            999 V2000
   -0.5687   27.7161   10.0583 S   0  0  0  0  0  0  0  0  0  0  0  0
    6.0869   23.4024    7.3425 S   0  0  0  0  0  0  0  0  0  0  0  0
    7.2185   23.6710    6.4954 O   0  0  0  0  0  0  0  0  0  0  0  0
    5.4037   22.2284    6.8694 O   0  0  0  0  0  0  0  0  0  0  0  0
   -3.3743   30.0840    9.5770 O   0  0  0  0  0  0  0  0  0  0  0  0
    1.0853   28.0900    7.9396 O   0  0  0  0  0  0  0  0  0  0  0  0
    6.5863   23.1598    8.8433 N   0  0  0  0  0  0  0  0  0  0  0  0
   -1.7928   26.6361   12.0704 N   0  0  0  0  0  0  0  0  0  0  0  0
   -2.8006   28.3786   10.9526 N   0  0  0  0  0  0  0  0  0  0  0  0
   -1.4966   30.9699    7.8717 C   0  0  0  0  0  0  0  0  0  0  0  0
    3.9177   24.8220    8.1908 C   0  0  0  0  0  0  0  0  0  0  0  0
    5.1568   25.7852    6.3602 C   0  0  0  0  0  0  0  0  0  0  0  0
    2.2696   29.1688    6.3835 C   0  0  0  0  0  0  0  0  0  0  0  0
    1.1484   29.9361    6.6855 C   0  0  0  0  0  0  0  0  0  0  0  0
    3.0298   25.8844    8.1448 C   0  0  0  0  0  0  0  0  0  0  0  0
    4.2688   26.8577    6.3201 C   0  0  0  0  0  0  0  0  0  0  0  0
   -1.8017   27.5113   11.1498 C   0  0  0  0  0  0  0  0  0  0  0  0
   -1.3640   28.9592    9.3045 C   0  0  0  0  0  0  0  0  0  0  0  0
    4.9846   24.7739    7.3021 C   0  0  0  0  0  0  0  0  0  0  0  0
   -2.5834   29.2128    9.9275 C   0  0  0  0  0  0  0  0  0  0  0  0
    2.2247   28.0342    7.1874 C   0  0  0  0  0  0  0  0  0  0  0  0
    0.4298   29.2584    7.6692 C   0  0  0  0  0  0  0  0  0  0  0  0
    3.2076   26.9058    7.2180 C   0  0  0  0  0  0  0  0  0  0  0  0
   -0.8519   29.6746    8.2859 C   0  0  0  0  0  0  0  0  0  0  0  0
    5.7988   22.9733    9.4307 H   0  0  0  0  0  0  0  0  0  0  0  0
    7.2105   22.3788    8.8648 H   0  0  0  0  0  0  0  0  0  0  0  0
   -2.5679   26.5626   12.6980 H   0  0  0  0  0  0  0  0  0  0  0  0
   -1.0107   26.0205   12.1676 H   0  0  0  0  0  0  0  0  0  0  0  0
   -0.9896   31.3645    7.1054 H   0  0  0  0  0  0  0  0  0  0  0  0
   -2.4414   30.7978    7.5929 H   0  0  0  0  0  0  0  0  0  0  0  0
   -1.4872   31.6080    8.6415 H   0  0  0  0  0  0  0  0  0  0  0  0
    3.7911   24.0916    8.8620 H   0  0  0  0  0  0  0  0  0  0  0  0
    5.9177   25.7415    5.7129 H   0  0  0  0  0  0  0  0  0  0  0  0
    2.9768   29.3918    5.7126 H   0  0  0  0  0  0  0  0  0  0  0  0
    0.9032   30.8131    6.2724 H   0  0  0  0  0  0  0  0  0  0  0  0
    2.2583   25.9169    8.7802 H   0  0  0  0  0  0  0  0  0  0  0  0
    4.3935   27.5889    5.6496 H   0  0  0  0  0  0  0  0  0  0  0  0
  1 17  1  0  0  0  0
  1 18  1  0  0  0  0
  2  3  2  0  0  0  0
  2  4  2  0  0  0  0
  2  7  1  0  0  0  0
  2 19  1  0  0  0  0
  5 20  2  0  0  0  0
  6 21  1  0  0  0  0
  6 22  1  0  0  0  0
  8 17  1  0  0  0  0
  9 17  2  0  0  0  0
  9 20  1  0  0  0  0
 10 24  1  0  0  0  0
 11 15  1  0  0  0  0
 11 19  2  0  0  0  0
 12 16  2  0  0  0  0
 12 19  1  0  0  0  0
 13 14  1  0  0  0  0
 13 21  2  0  0  0  0
 14 22  2  0  0  0  0
 15 23  2  0  0  0  0
 16 23  1  0  0  0  0
 18 20  1  0  0  0  0
 18 24  2  0  0  0  0
 21 23  1  0  0  0  0
 22 24  1  0  0  0  0
  7 25  1  0  0  0  0
  7 26  1  0  0  0  0
  8 27  1  0  0  0  0
  8 28  1  0  0  0  0
 10 29  1  0  0  0  0
 10 30  1  0  0  0  0
 10 31  1  0  0  0  0
 11 32  1  0  0  0  0
 12 33  1  0  0  0  0
 13 34  1  0  0  0  0
 14 35  1  0  0  0  0
 15 36  1  0  0  0  0
 16 37  1  0  0  0  0
M  END
$$$$
