C62_A_1297
          05071912473D 1   1.00000     0.00000     0
            
 33 35  0  0  0  0            999 V2000
   -0.4549   27.8366   10.2845 S   0  0  0  0  0  0  0  0  0  0  0  0
    6.5269   23.9611    7.4594 S   0  0  0  0  0  0  0  0  0  0  0  0
    7.0368   23.6398    6.0867 O   0  0  0  0  0  0  0  0  0  0  0  0
    7.6450   24.4712    8.3008 O   0  0  0  0  0  0  0  0  0  0  0  0
   -1.7004   26.7731   12.2511 O   0  0  0  0  0  0  0  0  0  0  0  0
   -3.5639   29.6100    9.2082 O   0  0  0  0  0  0  0  0  0  0  0  0
    1.0971   28.1628    7.8334 O   0  0  0  0  0  0  0  0  0  0  0  0
    5.9086   22.6036    8.1424 N   0  0  0  0  0  0  0  0  0  0  0  0
   -2.8759   28.1766   10.8697 N   0  0  0  0  0  0  0  0  0  0  0  0
    4.2145   25.2062    8.2483 C   0  0  0  0  0  0  0  0  0  0  0  0
    5.3720   26.2382    6.3936 C   0  0  0  0  0  0  0  0  0  0  0  0
    1.1766   30.0680    6.8079 C   0  0  0  0  0  0  0  0  0  0  0  0
    2.3366   29.4277    6.5416 C   0  0  0  0  0  0  0  0  0  0  0  0
    3.2454   26.1992    8.1864 C   0  0  0  0  0  0  0  0  0  0  0  0
    4.3919   27.2392    6.3320 C   0  0  0  0  0  0  0  0  0  0  0  0
   -0.8859   29.5550    8.1640 C   0  0  0  0  0  0  0  0  0  0  0  0
   -1.7511   27.5165   11.2688 C   0  0  0  0  0  0  0  0  0  0  0  0
   -1.3749   28.8579    9.2943 C   0  0  0  0  0  0  0  0  0  0  0  0
    5.2713   25.2122    7.3518 C   0  0  0  0  0  0  0  0  0  0  0  0
   -2.6830   28.9395    9.7498 C   0  0  0  0  0  0  0  0  0  0  0  0
    0.4290   29.2562    7.6248 C   0  0  0  0  0  0  0  0  0  0  0  0
    2.2861   28.2333    7.1823 C   0  0  0  0  0  0  0  0  0  0  0  0
    3.3254   27.2101    7.2233 C   0  0  0  0  0  0  0  0  0  0  0  0
    5.5681   22.8166    9.0582 H   0  0  0  0  0  0  0  0  0  0  0  0
    5.1574   22.2595    7.5791 H   0  0  0  0  0  0  0  0  0  0  0  0
   -3.7523   28.1101   11.3467 H   0  0  0  0  0  0  0  0  0  0  0  0
    4.1496   24.4868    8.9399 H   0  0  0  0  0  0  0  0  0  0  0  0
    6.1428   26.2533    5.7566 H   0  0  0  0  0  0  0  0  0  0  0  0
    0.9106   30.9709    6.4706 H   0  0  0  0  0  0  0  0  0  0  0  0
    3.0893   29.7696    5.9790 H   0  0  0  0  0  0  0  0  0  0  0  0
    2.4847   26.1913    8.8354 H   0  0  0  0  0  0  0  0  0  0  0  0
    4.4597   27.9689    5.6516 H   0  0  0  0  0  0  0  0  0  0  0  0
   -1.4504   30.2590    7.7330 H   0  0  0  0  0  0  0  0  0  0  0  0
  1 17  1  0  0  0  0
  1 18  1  0  0  0  0
  2  3  2  0  0  0  0
  2  4  2  0  0  0  0
  2  8  1  0  0  0  0
  2 19  1  0  0  0  0
  5 17  2  0  0  0  0
  6 20  2  0  0  0  0
  7 21  1  0  0  0  0
  7 22  1  0  0  0  0
  9 17  1  0  0  0  0
  9 20  1  0  0  0  0
 10 14  1  0  0  0  0
 10 19  2  0  0  0  0
 11 15  2  0  0  0  0
 11 19  1  0  0  0  0
 12 13  1  0  0  0  0
 12 21  2  0  0  0  0
 13 22  2  0  0  0  0
 14 23  2  0  0  0  0
 15 23  1  0  0  0  0
 16 18  2  0  0  0  0
 16 21  1  0  0  0  0
 18 20  1  0  0  0  0
 22 23  1  0  0  0  0
  8 24  1  0  0  0  0
  8 25  1  0  0  0  0
  9 26  1  0  0  0  0
 10 27  1  0  0  0  0
 11 28  1  0  0  0  0
 12 29  1  0  0  0  0
 13 30  1  0  0  0  0
 14 31  1  0  0  0  0
 15 32  1  0  0  0  0
 16 33  1  0  0  0  0
M  END
$$$$
