LZ2_A_1300
          05071912473D 1   1.00000     0.00000     0
            
 24 25  0  0  0  0            999 V2000
   -0.4599   26.1838   10.0855 S   0  0  0  0  0  0  0  0  0  0  0  0
    0.2723   24.9555   10.2494 O   0  0  0  0  0  0  0  0  0  0  0  0
   -1.8396   26.1317    9.6916 O   0  0  0  0  0  0  0  0  0  0  0  0
    1.1742   31.2064    6.4327 O   0  0  0  0  0  0  0  0  0  0  0  0
   -0.3854   26.9784   11.4768 N   0  0  0  0  0  0  0  0  0  0  0  0
    2.1588   27.2203    7.2431 C   0  0  0  0  0  0  0  0  0  0  0  0
   -1.3024   30.4355    8.9897 C   0  0  0  0  0  0  0  0  0  0  0  0
    1.4427   26.5215    8.1869 C   0  0  0  0  0  0  0  0  0  0  0  0
   -0.5880   31.1375    8.0379 C   0  0  0  0  0  0  0  0  0  0  0  0
   -0.9816   29.1216    9.2750 C   0  0  0  0  0  0  0  0  0  0  0  0
    1.8409   28.5383    6.9609 C   0  0  0  0  0  0  0  0  0  0  0  0
    0.3969   27.1332    8.8690 C   0  0  0  0  0  0  0  0  0  0  0  0
    0.4565   30.5277    7.3617 C   0  0  0  0  0  0  0  0  0  0  0  0
    0.0611   28.4697    8.6043 C   0  0  0  0  0  0  0  0  0  0  0  0
    0.7924   29.1861    7.6253 C   0  0  0  0  0  0  0  0  0  0  0  0
    1.9254   30.7537    5.9524 H   0  0  0  0  0  0  0  0  0  0  0  0
   -0.8865   27.8400   11.3959 H   0  0  0  0  0  0  0  0  0  0  0  0
   -0.7935   26.4221   12.2007 H   0  0  0  0  0  0  0  0  0  0  0  0
    2.9119   26.7750    6.7588 H   0  0  0  0  0  0  0  0  0  0  0  0
   -2.0553   30.8803    9.4747 H   0  0  0  0  0  0  0  0  0  0  0  0
    1.6753   25.5689    8.3834 H   0  0  0  0  0  0  0  0  0  0  0  0
   -0.8253   32.0878    7.8364 H   0  0  0  0  0  0  0  0  0  0  0  0
   -1.5025   28.6283    9.9717 H   0  0  0  0  0  0  0  0  0  0  0  0
    2.3684   29.0351    6.2718 H   0  0  0  0  0  0  0  0  0  0  0  0
  1  2  2  0  0  0  0
  1  3  2  0  0  0  0
  1  5  1  0  0  0  0
  1 12  1  0  0  0  0
  4 13  1  0  0  0  0
  6  8  2  0  0  0  0
  6 11  1  0  0  0  0
  7  9  1  0  0  0  0
  7 10  2  0  0  0  0
  8 12  1  0  0  0  0
  9 13  2  0  0  0  0
 10 14  1  0  0  0  0
 11 15  2  0  0  0  0
 12 14  2  0  0  0  0
 13 15  1  0  0  0  0
 14 15  1  0  0  0  0
  4 16  1  0  0  0  0
  5 17  1  0  0  0  0
  5 18  1  0  0  0  0
  6 19  1  0  0  0  0
  7 20  1  0  0  0  0
  8 21  1  0  0  0  0
  9 22  1  0  0  0  0
 10 23  1  0  0  0  0
 11 24  1  0  0  0  0
M  END
$$$$
