LZ3_A_1299
          05071912473D 1   1.00000     0.00000     0
            
 34 36  0  0  0  0            999 V2000
    6.9802   23.8939    7.3050 S   0  0  0  0  0  0  0  0  0  0  0  0
    7.8880   24.3827    8.2898 O   0  0  0  0  0  0  0  0  0  0  0  0
    7.4919   23.5596    5.9975 O   0  0  0  0  0  0  0  0  0  0  0  0
    1.2468   26.9882    7.5956 O   0  0  0  0  0  0  0  0  0  0  0  0
    6.2784   22.5757    7.8975 N   0  0  0  0  0  0  0  0  0  0  0  0
    0.5829   31.4265    7.1625 N   0  0  0  0  0  0  0  0  0  0  0  0
    1.4384   30.4452    6.7863 N   0  0  0  0  0  0  0  0  0  0  0  0
    2.9276   28.1687    6.6674 N   0  0  0  0  0  0  0  0  0  0  0  0
   -2.3520   30.7355    9.3678 C   0  0  0  0  0  0  0  0  0  0  0  0
   -2.1026   29.3806    9.5177 C   0  0  0  0  0  0  0  0  0  0  0  0
    4.9044   25.4391    8.1417 C   0  0  0  0  0  0  0  0  0  0  0  0
    5.6764   25.8390    5.9045 C   0  0  0  0  0  0  0  0  0  0  0  0
    3.9656   26.4342    7.9962 C   0  0  0  0  0  0  0  0  0  0  0  0
    4.7362   26.8442    5.7629 C   0  0  0  0  0  0  0  0  0  0  0  0
   -1.5039   31.5174    8.6064 C   0  0  0  0  0  0  0  0  0  0  0  0
   -1.0067   28.8036    8.9001 C   0  0  0  0  0  0  0  0  0  0  0  0
    5.7574   25.1375    7.0948 C   0  0  0  0  0  0  0  0  0  0  0  0
    1.7134   28.0669    7.1980 C   0  0  0  0  0  0  0  0  0  0  0  0
    3.8852   27.1548    6.8049 C   0  0  0  0  0  0  0  0  0  0  0  0
   -0.4112   30.9452    7.9706 C   0  0  0  0  0  0  0  0  0  0  0  0
    0.9756   29.3223    7.3514 C   0  0  0  0  0  0  0  0  0  0  0  0
   -0.1676   29.5771    8.1013 C   0  0  0  0  0  0  0  0  0  0  0  0
    5.6343   22.2103    7.2255 H   0  0  0  0  0  0  0  0  0  0  0  0
    6.9762   21.8882    8.0985 H   0  0  0  0  0  0  0  0  0  0  0  0
    0.6675   32.3833    6.8842 H   0  0  0  0  0  0  0  0  0  0  0  0
    3.1651   28.9936    6.1545 H   0  0  0  0  0  0  0  0  0  0  0  0
   -3.1474   31.1484    9.8115 H   0  0  0  0  0  0  0  0  0  0  0  0
   -2.7156   28.8188   10.0731 H   0  0  0  0  0  0  0  0  0  0  0  0
    4.9702   24.9347    9.0026 H   0  0  0  0  0  0  0  0  0  0  0  0
    6.2949   25.6204    5.1498 H   0  0  0  0  0  0  0  0  0  0  0  0
    3.3387   26.6415    8.7472 H   0  0  0  0  0  0  0  0  0  0  0  0
    4.6726   27.3482    4.9015 H   0  0  0  0  0  0  0  0  0  0  0  0
   -1.6781   32.4977    8.5135 H   0  0  0  0  0  0  0  0  0  0  0  0
   -0.8169   27.8300    9.0274 H   0  0  0  0  0  0  0  0  0  0  0  0
  1  2  2  0  0  0  0
  1  3  2  0  0  0  0
  1  5  1  0  0  0  0
  1 17  1  0  0  0  0
  4 18  2  0  0  0  0
  6  7  1  0  0  0  0
  6 20  1  0  0  0  0
  7 21  2  0  0  0  0
  8 18  1  0  0  0  0
  8 19  1  0  0  0  0
  9 10  2  0  0  0  0
  9 15  1  0  0  0  0
 10 16  1  0  0  0  0
 11 13  1  0  0  0  0
 11 17  2  0  0  0  0
 12 14  2  0  0  0  0
 12 17  1  0  0  0  0
 13 19  2  0  0  0  0
 14 19  1  0  0  0  0
 15 20  2  0  0  0  0
 16 22  2  0  0  0  0
 18 21  1  0  0  0  0
 20 22  1  0  0  0  0
 21 22  1  0  0  0  0
  5 23  1  0  0  0  0
  5 24  1  0  0  0  0
  6 25  1  0  0  0  0
  8 26  1  0  0  0  0
  9 27  1  0  0  0  0
 10 28  1  0  0  0  0
 11 29  1  0  0  0  0
 12 30  1  0  0  0  0
 13 31  1  0  0  0  0
 14 32  1  0  0  0  0
 15 33  1  0  0  0  0
 16 34  1  0  0  0  0
M  END
$$$$
