LZ5_A_1299
          05071912473D 1   1.00000     0.00000     0
            
 23 24  0  0  0  0            999 V2000
    1.2131   27.4032    7.5908 O   0  0  0  0  0  0  0  0  0  0  0  0
    0.6114   31.7238    6.8839 N   0  0  0  0  0  0  0  0  0  0  0  0
    1.4838   30.7327    6.5769 N   0  0  0  0  0  0  0  0  0  0  0  0
    2.8432   28.3673    6.4056 N   0  0  0  0  0  0  0  0  0  0  0  0
   -0.3939   31.2767    7.6565 C   0  0  0  0  0  0  0  0  0  0  0  0
    5.6287   25.2599    6.3294 C   0  0  0  0  0  0  0  0  0  0  0  0
    4.9426   25.5372    7.4962 C   0  0  0  0  0  0  0  0  0  0  0  0
    5.3931   26.0054    5.1915 C   0  0  0  0  0  0  0  0  0  0  0  0
    4.0227   26.5670    7.5271 C   0  0  0  0  0  0  0  0  0  0  0  0
    4.4793   27.0363    5.2145 C   0  0  0  0  0  0  0  0  0  0  0  0
   -0.1779   29.9603    7.8585 C   0  0  0  0  0  0  0  0  0  0  0  0
    1.6698   28.3769    7.0658 C   0  0  0  0  0  0  0  0  0  0  0  0
    3.7771   27.3245    6.3810 C   0  0  0  0  0  0  0  0  0  0  0  0
    0.9866   29.6726    7.1580 C   0  0  0  0  0  0  0  0  0  0  0  0
    2.3185   30.7978    6.0300 H   0  0  0  0  0  0  0  0  0  0  0  0
    3.0705   29.1872    5.8802 H   0  0  0  0  0  0  0  0  0  0  0  0
   -1.1561   31.8167    8.0133 H   0  0  0  0  0  0  0  0  0  0  0  0
    6.2979   24.5171    6.3090 H   0  0  0  0  0  0  0  0  0  0  0  0
    5.1119   24.9926    8.3176 H   0  0  0  0  0  0  0  0  0  0  0  0
    5.8873   25.7965    4.3476 H   0  0  0  0  0  0  0  0  0  0  0  0
    3.5309   26.7706    8.3737 H   0  0  0  0  0  0  0  0  0  0  0  0
    4.3201   27.5795    4.3901 H   0  0  0  0  0  0  0  0  0  0  0  0
   -0.7357   29.3282    8.3964 H   0  0  0  0  0  0  0  0  0  0  0  0
  1 12  2  0  0  0  0
  2  3  1  0  0  0  0
  2  5  2  0  0  0  0
  3 14  1  0  0  0  0
  4 12  1  0  0  0  0
  4 13  1  0  0  0  0
  5 11  1  0  0  0  0
  6  7  2  0  0  0  0
  6  8  1  0  0  0  0
  7  9  1  0  0  0  0
  8 10  2  0  0  0  0
  9 13  2  0  0  0  0
 10 13  1  0  0  0  0
 11 14  2  0  0  0  0
 12 14  1  0  0  0  0
  3 15  1  0  0  0  0
  4 16  1  0  0  0  0
  5 17  1  0  0  0  0
  6 18  1  0  0  0  0
  7 19  1  0  0  0  0
  8 20  1  0  0  0  0
  9 21  1  0  0  0  0
 10 22  1  0  0  0  0
 11 23  1  0  0  0  0
M  END
$$$$
