LZ7_A_1299
          05071912473D 1   1.00000     0.00000     0
            
 30 31  0  0  0  0            999 V2000
    6.5189   24.3259    6.2361 F   0  0  0  0  0  0  0  0  0  0  0  0
   -2.3802   30.6848    9.5684 O   0  0  0  0  0  0  0  0  0  0  0  0
    1.3864   27.5101    7.8836 O   0  0  0  0  0  0  0  0  0  0  0  0
    0.6104   31.8050    6.8809 N   0  0  0  0  0  0  0  0  0  0  0  0
    1.4779   30.8024    6.6283 N   0  0  0  0  0  0  0  0  0  0  0  0
   -0.7667   29.2736    8.8926 N   0  0  0  0  0  0  0  0  0  0  0  0
    3.0060   28.5175    6.6912 N   0  0  0  0  0  0  0  0  0  0  0  0
   -2.4643   28.4588   10.3894 C   0  0  0  0  0  0  0  0  0  0  0  0
   -0.3368   31.4248    7.7259 C   0  0  0  0  0  0  0  0  0  0  0  0
    5.4332   26.1618    5.2604 C   0  0  0  0  0  0  0  0  0  0  0  0
    5.0276   25.5742    7.5619 C   0  0  0  0  0  0  0  0  0  0  0  0
    4.5530   27.2202    5.3747 C   0  0  0  0  0  0  0  0  0  0  0  0
    4.1435   26.6295    7.6761 C   0  0  0  0  0  0  0  0  0  0  0  0
   -1.8834   29.5725    9.5849 C   0  0  0  0  0  0  0  0  0  0  0  0
    1.8194   28.5051    7.3236 C   0  0  0  0  0  0  0  0  0  0  0  0
    5.6603   25.3536    6.3518 C   0  0  0  0  0  0  0  0  0  0  0  0
    3.8971   27.4613    6.5802 C   0  0  0  0  0  0  0  0  0  0  0  0
   -0.0751   30.1253    8.0467 C   0  0  0  0  0  0  0  0  0  0  0  0
    1.0726   29.7859    7.3431 C   0  0  0  0  0  0  0  0  0  0  0  0
    0.6743   32.7192    6.4808 H   0  0  0  0  0  0  0  0  0  0  0  0
   -0.4023   28.3486    8.9998 H   0  0  0  0  0  0  0  0  0  0  0  0
    3.2733   29.3773    6.2561 H   0  0  0  0  0  0  0  0  0  0  0  0
   -1.9111   27.6349   10.2662 H   0  0  0  0  0  0  0  0  0  0  0  0
   -2.4711   28.7143   11.3562 H   0  0  0  0  0  0  0  0  0  0  0  0
   -3.4000   28.2806   10.0851 H   0  0  0  0  0  0  0  0  0  0  0  0
   -1.0956   31.9822    8.0629 H   0  0  0  0  0  0  0  0  0  0  0  0
    5.9005   25.9844    4.3943 H   0  0  0  0  0  0  0  0  0  0  0  0
    5.2079   24.9775    8.3439 H   0  0  0  0  0  0  0  0  0  0  0  0
    4.3858   27.8158    4.5890 H   0  0  0  0  0  0  0  0  0  0  0  0
    3.6785   26.7987    8.5451 H   0  0  0  0  0  0  0  0  0  0  0  0
  1 16  1  0  0  0  0
  2 14  2  0  0  0  0
  3 15  2  0  0  0  0
  4  5  1  0  0  0  0
  4  9  1  0  0  0  0
  5 19  2  0  0  0  0
  6 14  1  0  0  0  0
  6 18  1  0  0  0  0
  7 15  1  0  0  0  0
  7 17  1  0  0  0  0
  8 14  1  0  0  0  0
  9 18  2  0  0  0  0
 10 12  2  0  0  0  0
 10 16  1  0  0  0  0
 11 13  1  0  0  0  0
 11 16  2  0  0  0  0
 12 17  1  0  0  0  0
 13 17  2  0  0  0  0
 15 19  1  0  0  0  0
 18 19  1  0  0  0  0
  4 20  1  0  0  0  0
  6 21  1  0  0  0  0
  7 22  1  0  0  0  0
  8 23  1  0  0  0  0
  8 24  1  0  0  0  0
  8 25  1  0  0  0  0
  9 26  1  0  0  0  0
 10 27  1  0  0  0  0
 11 28  1  0  0  0  0
 12 29  1  0  0  0  0
 13 30  1  0  0  0  0
M  END
$$$$
