LZA_A_1299
          05071912473D 1   1.00000     0.00000     0
            
 42 44  0  0  0  0            999 V2000
    0.2422   27.8634   11.4152 F   0  0  0  0  0  0  0  0  0  0  0  0
   -4.0941   28.1320    9.6178 F   0  0  0  0  0  0  0  0  0  0  0  0
    1.3886   27.1178    7.5096 O   0  0  0  0  0  0  0  0  0  0  0  0
   -1.9707   30.3101    9.7284 O   0  0  0  0  0  0  0  0  0  0  0  0
    0.7864   31.5149    6.7725 N   0  0  0  0  0  0  0  0  0  0  0  0
    6.2929   25.2568    5.8977 N   0  0  0  0  0  0  0  0  0  0  0  0
    1.6362   30.5244    6.4183 N   0  0  0  0  0  0  0  0  0  0  0  0
    3.1095   28.0639    6.4239 N   0  0  0  0  0  0  0  0  0  0  0  0
   -0.5063   28.8606    8.7399 N   0  0  0  0  0  0  0  0  0  0  0  0
    5.2210   25.3064    4.8610 C   0  0  0  0  0  0  0  0  0  0  0  0
    5.7339   25.3937    7.2727 C   0  0  0  0  0  0  0  0  0  0  0  0
   -2.7126   25.8836   12.1242 C   0  0  0  0  0  0  0  0  0  0  0  0
   -0.1347   31.0761    7.6591 C   0  0  0  0  0  0  0  0  0  0  0  0
   -1.4084   26.3429   12.1781 C   0  0  0  0  0  0  0  0  0  0  0  0
   -3.6235   26.4841   11.2600 C   0  0  0  0  0  0  0  0  0  0  0  0
    4.4754   26.6364    4.9403 C   0  0  0  0  0  0  0  0  0  0  0  0
    4.9293   26.6994    7.4124 C   0  0  0  0  0  0  0  0  0  0  0  0
   -1.0242   27.4088   11.3724 C   0  0  0  0  0  0  0  0  0  0  0  0
   -3.2121   27.5407   10.4471 C   0  0  0  0  0  0  0  0  0  0  0  0
    1.9137   28.1161    7.0333 C   0  0  0  0  0  0  0  0  0  0  0  0
   -1.4756   29.1623    9.6184 C   0  0  0  0  0  0  0  0  0  0  0  0
    3.8503   26.8070    6.3263 C   0  0  0  0  0  0  0  0  0  0  0  0
    0.1276   29.7572    7.8959 C   0  0  0  0  0  0  0  0  0  0  0  0
    1.2381   29.4414    7.1116 C   0  0  0  0  0  0  0  0  0  0  0  0
   -1.9174   28.0261   10.4916 C   0  0  0  0  0  0  0  0  0  0  0  0
    6.9377   26.0034    5.7338 H   0  0  0  0  0  0  0  0  0  0  0  0
    2.4003   30.5840    5.7760 H   0  0  0  0  0  0  0  0  0  0  0  0
    3.4990   28.8970    6.0311 H   0  0  0  0  0  0  0  0  0  0  0  0
   -0.2167   27.9048    8.6907 H   0  0  0  0  0  0  0  0  0  0  0  0
    4.5774   24.5567    5.0147 H   0  0  0  0  0  0  0  0  0  0  0  0
    5.6329   25.2116    3.9547 H   0  0  0  0  0  0  0  0  0  0  0  0
    6.4855   25.4004    7.9324 H   0  0  0  0  0  0  0  0  0  0  0  0
    5.1326   24.6171    7.4604 H   0  0  0  0  0  0  0  0  0  0  0  0
   -3.0000   25.1219   12.7050 H   0  0  0  0  0  0  0  0  0  0  0  0
   -0.8711   31.6167    8.0658 H   0  0  0  0  0  0  0  0  0  0  0  0
   -0.7473   25.9114   12.7919 H   0  0  0  0  0  0  0  0  0  0  0  0
   -4.5686   26.1596   11.2219 H   0  0  0  0  0  0  0  0  0  0  0  0
    3.7541   26.6529    4.2479 H   0  0  0  0  0  0  0  0  0  0  0  0
    5.1162   27.3854    4.7720 H   0  0  0  0  0  0  0  0  0  0  0  0
    5.5528   27.4769    7.3305 H   0  0  0  0  0  0  0  0  0  0  0  0
    4.4904   26.7173    8.3107 H   0  0  0  0  0  0  0  0  0  0  0  0
    3.2020   26.0582    6.4639 H   0  0  0  0  0  0  0  0  0  0  0  0
  1 18  1  0  0  0  0
  2 19  1  0  0  0  0
  3 20  2  0  0  0  0
  4 21  2  0  0  0  0
  5  7  1  0  0  0  0
  5 13  2  0  0  0  0
  6 10  1  0  0  0  0
  6 11  1  0  0  0  0
  7 24  1  0  0  0  0
  8 20  1  0  0  0  0
  8 22  1  0  0  0  0
  9 21  1  0  0  0  0
  9 23  1  0  0  0  0
 10 16  1  0  0  0  0
 11 17  1  0  0  0  0
 12 14  2  0  0  0  0
 12 15  1  0  0  0  0
 13 23  1  0  0  0  0
 14 18  1  0  0  0  0
 15 19  2  0  0  0  0
 16 22  1  0  0  0  0
 17 22  1  0  0  0  0
 18 25  2  0  0  0  0
 19 25  1  0  0  0  0
 20 24  1  0  0  0  0
 21 25  1  0  0  0  0
 23 24  2  0  0  0  0
  6 26  1  0  0  0  0
  7 27  1  0  0  0  0
  8 28  1  0  0  0  0
  9 29  1  0  0  0  0
 10 30  1  0  0  0  0
 10 31  1  0  0  0  0
 11 32  1  0  0  0  0
 11 33  1  0  0  0  0
 12 34  1  0  0  0  0
 13 35  1  0  0  0  0
 14 36  1  0  0  0  0
 15 37  1  0  0  0  0
 16 38  1  0  0  0  0
 16 39  1  0  0  0  0
 17 40  1  0  0  0  0
 17 41  1  0  0  0  0
 22 42  1  0  0  0  0
M  END
$$$$
