LZC_A_1299
          05071912473D 1   1.00000     0.00000     0
            
 46 48  0  0  0  0            999 V2000
   -2.1798   31.1359    9.1596 N   0  0  0  0  0  0  0  0  0  0  0  0
   -2.6866   25.0417   14.0356 N   0  0  0  0  0  0  0  0  0  0  0  0
    1.6893   30.1587    6.5536 N   0  0  0  0  0  0  0  0  0  0  0  0
   -0.1160   27.8766    8.5438 N   0  0  0  0  0  0  0  0  0  0  0  0
    3.2713   27.8399    6.1203 N   0  0  0  0  0  0  0  0  0  0  0  0
    0.0781   25.6548    9.0829 N   0  0  0  0  0  0  0  0  0  0  0  0
    1.4239   28.9331    7.1091 N   0  0  0  0  0  0  0  0  0  0  0  0
    4.9807   26.8068    4.7067 C   0  0  0  0  0  0  0  0  0  0  0  0
    5.1891   26.8333    7.2359 C   0  0  0  0  0  0  0  0  0  0  0  0
   -1.2554   30.7482    8.5924 C   0  0  0  0  0  0  0  0  0  0  0  0
    0.7465   30.9678    7.0569 C   0  0  0  0  0  0  0  0  0  0  0  0
   -2.4271   24.4496   11.6547 C   0  0  0  0  0  0  0  0  0  0  0  0
   -1.2555   26.4709   12.5712 C   0  0  0  0  0  0  0  0  0  0  0  0
   -1.4437   24.3914   10.5058 C   0  0  0  0  0  0  0  0  0  0  0  0
   -0.3353   26.5116   11.3491 C   0  0  0  0  0  0  0  0  0  0  0  0
    1.7119   26.6396    7.5908 C   0  0  0  0  0  0  0  0  0  0  0  0
    0.5828   26.7315    8.3950 C   0  0  0  0  0  0  0  0  0  0  0  0
    4.2371   26.7556    6.0419 C   0  0  0  0  0  0  0  0  0  0  0  0
    2.1532   27.7830    6.9399 C   0  0  0  0  0  0  0  0  0  0  0  0
    0.3231   28.9703    7.9194 C   0  0  0  0  0  0  0  0  0  0  0  0
   -1.7453   25.0490   12.8643 C   0  0  0  0  0  0  0  0  0  0  0  0
   -0.9237   25.7789   10.1278 C   0  0  0  0  0  0  0  0  0  0  0  0
   -0.1163   30.2663    7.9037 C   0  0  0  0  0  0  0  0  0  0  0  0
   -2.2308   25.4389   14.8321 H   0  0  0  0  0  0  0  0  0  0  0  0
   -3.4993   25.5804   13.8135 H   0  0  0  0  0  0  0  0  0  0  0  0
    3.4184   28.6568    5.5627 H   0  0  0  0  0  0  0  0  0  0  0  0
    0.4163   24.7421    8.8535 H   0  0  0  0  0  0  0  0  0  0  0  0
    5.6414   26.0574    4.6642 H   0  0  0  0  0  0  0  0  0  0  0  0
    4.3255   26.7165    3.9567 H   0  0  0  0  0  0  0  0  0  0  0  0
    5.4614   27.6800    4.6261 H   0  0  0  0  0  0  0  0  0  0  0  0
    5.8532   26.0876    7.1818 H   0  0  0  0  0  0  0  0  0  0  0  0
    5.6703   27.7098    7.2221 H   0  0  0  0  0  0  0  0  0  0  0  0
    4.6664   26.7532    8.0847 H   0  0  0  0  0  0  0  0  0  0  0  0
    0.6705   31.9439    6.8535 H   0  0  0  0  0  0  0  0  0  0  0  0
   -2.7422   23.5257   11.8721 H   0  0  0  0  0  0  0  0  0  0  0  0
   -3.2095   25.0165   11.3967 H   0  0  0  0  0  0  0  0  0  0  0  0
   -2.0470   27.0577   12.4007 H   0  0  0  0  0  0  0  0  0  0  0  0
   -0.7535   26.8111   13.3664 H   0  0  0  0  0  0  0  0  0  0  0  0
   -1.8986   23.9893    9.7112 H   0  0  0  0  0  0  0  0  0  0  0  0
   -0.6692   23.8177   10.7723 H   0  0  0  0  0  0  0  0  0  0  0  0
    0.5343   26.0810   11.5906 H   0  0  0  0  0  0  0  0  0  0  0  0
   -0.1767   27.4673   11.1014 H   0  0  0  0  0  0  0  0  0  0  0  0
    2.1949   25.7705    7.4836 H   0  0  0  0  0  0  0  0  0  0  0  0
    3.7409   25.8889    6.0919 H   0  0  0  0  0  0  0  0  0  0  0  0
   -0.9531   24.4831   13.0926 H   0  0  0  0  0  0  0  0  0  0  0  0
   -1.6874   26.3178    9.7724 H   0  0  0  0  0  0  0  0  0  0  0  0
  1 10  3  0  0  0  0
  2 21  1  0  0  0  0
  3  7  1  0  0  0  0
  3 11  2  0  0  0  0
  4 17  2  0  0  0  0
  4 20  1  0  0  0  0
  5 18  1  0  0  0  0
  5 19  1  0  0  0  0
  6 17  1  0  0  0  0
  6 22  1  0  0  0  0
  7 19  1  0  0  0  0
  7 20  1  0  0  0  0
  8 18  1  0  0  0  0
  9 18  1  0  0  0  0
 10 23  1  0  0  0  0
 11 23  1  0  0  0  0
 12 14  1  0  0  0  0
 12 21  1  0  0  0  0
 13 15  1  0  0  0  0
 13 21  1  0  0  0  0
 14 22  1  0  0  0  0
 15 22  1  0  0  0  0
 16 17  1  0  0  0  0
 16 19  2  0  0  0  0
 20 23  2  0  0  0  0
  2 24  1  0  0  0  0
  2 25  1  0  0  0  0
  5 26  1  0  0  0  0
  6 27  1  0  0  0  0
  8 28  1  0  0  0  0
  8 29  1  0  0  0  0
  8 30  1  0  0  0  0
  9 31  1  0  0  0  0
  9 32  1  0  0  0  0
  9 33  1  0  0  0  0
 11 34  1  0  0  0  0
 12 35  1  0  0  0  0
 12 36  1  0  0  0  0
 13 37  1  0  0  0  0
 13 38  1  0  0  0  0
 14 39  1  0  0  0  0
 14 40  1  0  0  0  0
 15 41  1  0  0  0  0
 15 42  1  0  0  0  0
 16 43  1  0  0  0  0
 18 44  1  0  0  0  0
 21 45  1  0  0  0  0
 22 46  1  0  0  0  0
M  END
$$$$
