CDK_A_500
          05071912473D 1   1.00000     0.00000     0
            
 50 52  0  0  0  0            999 V2000
   -0.1709   27.4178   10.3512 S   0  0  0  0  0  0  0  0  0  0  0  0
    6.0749   23.7986    7.3477 S   0  0  0  0  0  0  0  0  0  0  0  0
    7.1871   24.1518    8.2925 O   0  0  0  0  0  0  0  0  0  0  0  0
    6.7049   23.4326    6.0246 O   0  0  0  0  0  0  0  0  0  0  0  0
   -1.9986   26.5036   11.9707 O   0  0  0  0  0  0  0  0  0  0  0  0
    7.1609   20.6254    5.9165 O   0  0  0  0  0  0  0  0  0  0  0  0
    5.2028   22.5401    7.9394 N   0  0  0  0  0  0  0  0  0  0  0  0
    1.8362   30.5332    6.6587 N   0  0  0  0  0  0  0  0  0  0  0  0
    3.0556   28.6809    6.3397 N   0  0  0  0  0  0  0  0  0  0  0  0
    1.1948   28.5670    7.7762 N   0  0  0  0  0  0  0  0  0  0  0  0
   -2.5599   28.1357   10.4709 N   0  0  0  0  0  0  0  0  0  0  0  0
    7.5288   19.3457    5.4082 C   0  0  0  0  0  0  0  0  0  0  0  0
   -3.9821   28.2345   10.8653 C   0  0  0  0  0  0  0  0  0  0  0  0
   -2.8331   29.9038    8.6889 C   0  0  0  0  0  0  0  0  0  0  0  0
    5.9809   20.4987    6.7512 C   0  0  0  0  0  0  0  0  0  0  0  0
    6.0510   21.3376    8.0359 C   0  0  0  0  0  0  0  0  0  0  0  0
    0.8329   31.2156    7.1804 C   0  0  0  0  0  0  0  0  0  0  0  0
    5.3396   25.9586    5.9569 C   0  0  0  0  0  0  0  0  0  0  0  0
    4.1397   25.6496    8.0370 C   0  0  0  0  0  0  0  0  0  0  0  0
   -0.0332   30.5780    8.0532 C   0  0  0  0  0  0  0  0  0  0  0  0
    4.6122   27.1164    5.7481 C   0  0  0  0  0  0  0  0  0  0  0  0
    3.4000   26.8124    7.8105 C   0  0  0  0  0  0  0  0  0  0  0  0
   -1.7101   27.2863   11.0673 C   0  0  0  0  0  0  0  0  0  0  0  0
   -0.6769   28.6006    9.2448 C   0  0  0  0  0  0  0  0  0  0  0  0
    5.0955   25.2262    7.1101 C   0  0  0  0  0  0  0  0  0  0  0  0
    2.0305   29.2424    6.9608 C   0  0  0  0  0  0  0  0  0  0  0  0
    3.6454   27.5376    6.6525 C   0  0  0  0  0  0  0  0  0  0  0  0
    0.1658   29.2309    8.3341 C   0  0  0  0  0  0  0  0  0  0  0  0
   -2.0268   28.8786    9.4874 C   0  0  0  0  0  0  0  0  0  0  0  0
    4.4335   22.3542    7.3280 H   0  0  0  0  0  0  0  0  0  0  0  0
    3.4236   29.1723    5.5503 H   0  0  0  0  0  0  0  0  0  0  0  0
    8.3421   19.4365    4.8335 H   0  0  0  0  0  0  0  0  0  0  0  0
    7.7261   18.7287    6.1700 H   0  0  0  0  0  0  0  0  0  0  0  0
    6.7763   18.9740    4.8646 H   0  0  0  0  0  0  0  0  0  0  0  0
   -4.4376   28.9226   10.3005 H   0  0  0  0  0  0  0  0  0  0  0  0
   -4.4266   27.3484   10.7344 H   0  0  0  0  0  0  0  0  0  0  0  0
   -4.0435   28.4993   11.8277 H   0  0  0  0  0  0  0  0  0  0  0  0
   -2.2405   30.3390    8.0111 H   0  0  0  0  0  0  0  0  0  0  0  0
   -3.5896   29.4439    8.2240 H   0  0  0  0  0  0  0  0  0  0  0  0
   -3.1963   30.5987    9.3095 H   0  0  0  0  0  0  0  0  0  0  0  0
    5.8740   19.5375    7.0055 H   0  0  0  0  0  0  0  0  0  0  0  0
    5.1852   20.7941    6.2225 H   0  0  0  0  0  0  0  0  0  0  0  0
    5.7396   20.7805    8.8058 H   0  0  0  0  0  0  0  0  0  0  0  0
    6.9982   21.6189    8.1896 H   0  0  0  0  0  0  0  0  0  0  0  0
    0.7005   32.1793    6.9486 H   0  0  0  0  0  0  0  0  0  0  0  0
    6.0243   25.6568    5.2935 H   0  0  0  0  0  0  0  0  0  0  0  0
    3.9841   25.1163    8.8684 H   0  0  0  0  0  0  0  0  0  0  0  0
   -0.7896   31.0784    8.4745 H   0  0  0  0  0  0  0  0  0  0  0  0
    4.7860   27.6622    4.9283 H   0  0  0  0  0  0  0  0  0  0  0  0
    2.7096   27.1155    8.4673 H   0  0  0  0  0  0  0  0  0  0  0  0
  1 23  1  0  0  0  0
  1 24  1  0  0  0  0
  2  3  2  0  0  0  0
  2  4  2  0  0  0  0
  2  7  1  0  0  0  0
  2 25  1  0  0  0  0
  5 23  2  0  0  0  0
  6 12  1  0  0  0  0
  6 15  1  0  0  0  0
  7 16  1  0  0  0  0
  8 17  1  0  0  0  0
  8 26  2  0  0  0  0
  9 26  1  0  0  0  0
  9 27  1  0  0  0  0
 10 26  1  0  0  0  0
 10 28  2  0  0  0  0
 11 13  1  0  0  0  0
 11 23  1  0  0  0  0
 11 29  1  0  0  0  0
 14 29  1  0  0  0  0
 15 16  1  0  0  0  0
 17 20  2  0  0  0  0
 18 21  1  0  0  0  0
 18 25  2  0  0  0  0
 19 22  2  0  0  0  0
 19 25  1  0  0  0  0
 20 28  1  0  0  0  0
 21 27  2  0  0  0  0
 22 27  1  0  0  0  0
 24 28  1  0  0  0  0
 24 29  2  0  0  0  0
  7 30  1  0  0  0  0
  9 31  1  0  0  0  0
 12 32  1  0  0  0  0
 12 33  1  0  0  0  0
 12 34  1  0  0  0  0
 13 35  1  0  0  0  0
 13 36  1  0  0  0  0
 13 37  1  0  0  0  0
 14 38  1  0  0  0  0
 14 39  1  0  0  0  0
 14 40  1  0  0  0  0
 15 41  1  0  0  0  0
 15 42  1  0  0  0  0
 16 43  1  0  0  0  0
 16 44  1  0  0  0  0
 17 45  1  0  0  0  0
 18 46  1  0  0  0  0
 19 47  1  0  0  0  0
 20 48  1  0  0  0  0
 21 49  1  0  0  0  0
 22 50  1  0  0  0  0
M  END
$$$$
