A07_A_299
          05071912473D 1   1.00000     0.00000     0
            
 38 40  0  0  0  0            999 V2000
   -2.8722   30.3062   10.4032 Cl  0  0  0  0  0  0  0  0  0  0  0  0
    2.0077   26.4128    7.7520 O   0  0  0  0  0  0  0  0  0  0  0  0
    1.6466   30.3787    6.2759 N   0  0  0  0  0  0  0  0  0  0  0  0
    0.7726   31.0895    6.7943 N   0  0  0  0  0  0  0  0  0  0  0  0
    2.5356   28.2247    6.4424 N   0  0  0  0  0  0  0  0  0  0  0  0
    5.0226   25.9364    8.3321 C   0  0  0  0  0  0  0  0  0  0  0  0
    5.1158   26.2040    6.8247 C   0  0  0  0  0  0  0  0  0  0  0  0
   -2.3281   25.8429   12.4205 C   0  0  0  0  0  0  0  0  0  0  0  0
   -1.0827   26.4642   12.5530 C   0  0  0  0  0  0  0  0  0  0  0  0
   -3.1194   26.1078   11.2974 C   0  0  0  0  0  0  0  0  0  0  0  0
    3.7480   26.1536    6.1313 C   0  0  0  0  0  0  0  0  0  0  0  0
   -0.6388   27.3557   11.5712 C   0  0  0  0  0  0  0  0  0  0  0  0
   -2.6806   27.0124   10.3224 C   0  0  0  0  0  0  0  0  0  0  0  0
   -1.0027   30.7628    8.5143 C   0  0  0  0  0  0  0  0  0  0  0  0
    0.1245   28.2160    8.7037 C   0  0  0  0  0  0  0  0  0  0  0  0
    2.6676   26.9573    6.8674 C   0  0  0  0  0  0  0  0  0  0  0  0
   -1.5225   29.8379    9.4232 C   0  0  0  0  0  0  0  0  0  0  0  0
    1.6803   29.1823    6.8566 C   0  0  0  0  0  0  0  0  0  0  0  0
    0.0629   30.4032    7.6855 C   0  0  0  0  0  0  0  0  0  0  0  0
   -1.4362   27.6367   10.4549 C   0  0  0  0  0  0  0  0  0  0  0  0
   -0.9757   28.5474    9.5042 C   0  0  0  0  0  0  0  0  0  0  0  0
    0.6228   29.1317    7.7647 C   0  0  0  0  0  0  0  0  0  0  0  0
    0.6211   32.0525    6.5714 H   0  0  0  0  0  0  0  0  0  0  0  0
    3.1625   28.4982    5.7128 H   0  0  0  0  0  0  0  0  0  0  0  0
    5.9366   25.9803    8.7356 H   0  0  0  0  0  0  0  0  0  0  0  0
    4.4370   26.6264    8.7576 H   0  0  0  0  0  0  0  0  0  0  0  0
    4.6335   25.0282    8.4860 H   0  0  0  0  0  0  0  0  0  0  0  0
    5.7095   25.5128    6.4127 H   0  0  0  0  0  0  0  0  0  0  0  0
    5.5129   27.1110    6.6843 H   0  0  0  0  0  0  0  0  0  0  0  0
   -2.6519   25.2117   13.1253 H   0  0  0  0  0  0  0  0  0  0  0  0
   -0.5096   26.2712   13.3494 H   0  0  0  0  0  0  0  0  0  0  0  0
   -4.0018   25.6496   11.1905 H   0  0  0  0  0  0  0  0  0  0  0  0
    3.4535   25.1994    6.0782 H   0  0  0  0  0  0  0  0  0  0  0  0
    3.8459   26.5241    5.2077 H   0  0  0  0  0  0  0  0  0  0  0  0
    0.2542   27.7954   11.6670 H   0  0  0  0  0  0  0  0  0  0  0  0
   -3.2577   27.2121    9.5306 H   0  0  0  0  0  0  0  0  0  0  0  0
   -1.3931   31.6817    8.4571 H   0  0  0  0  0  0  0  0  0  0  0  0
    0.5581   27.3203    8.8021 H   0  0  0  0  0  0  0  0  0  0  0  0
  1 17  1  0  0  0  0
  2 16  2  0  0  0  0
  3  4  1  0  0  0  0
  3 18  2  0  0  0  0
  4 19  1  0  0  0  0
  5 16  1  0  0  0  0
  5 18  1  0  0  0  0
  6  7  1  0  0  0  0
  7 11  1  0  0  0  0
  8  9  2  0  0  0  0
  8 10  1  0  0  0  0
  9 12  1  0  0  0  0
 10 13  2  0  0  0  0
 11 16  1  0  0  0  0
 12 20  2  0  0  0  0
 13 20  1  0  0  0  0
 14 17  1  0  0  0  0
 14 19  2  0  0  0  0
 15 21  1  0  0  0  0
 15 22  2  0  0  0  0
 17 21  2  0  0  0  0
 18 22  1  0  0  0  0
 19 22  1  0  0  0  0
 20 21  1  0  0  0  0
  4 23  1  0  0  0  0
  5 24  1  0  0  0  0
  6 25  1  0  0  0  0
  6 26  1  0  0  0  0
  6 27  1  0  0  0  0
  7 28  1  0  0  0  0
  7 29  1  0  0  0  0
  8 30  1  0  0  0  0
  9 31  1  0  0  0  0
 10 32  1  0  0  0  0
 11 33  1  0  0  0  0
 11 34  1  0  0  0  0
 12 35  1  0  0  0  0
 13 36  1  0  0  0  0
 14 37  1  0  0  0  0
 15 38  1  0  0  0  0
M  END
$$$$
