JWS_A_299
          05071912473D 1   1.00000     0.00000     0
            
 28 29  0  0  0  0            999 V2000
    2.4005   30.5091    6.4335 O   0  0  0  0  0  0  0  0  0  0  0  0
   -1.9049   29.2723    9.8387 O   0  0  0  0  0  0  0  0  0  0  0  0
    3.0006   24.4006    8.5855 N   0  0  0  0  0  0  0  0  0  0  0  0
    5.3439   27.3565    5.7289 N   0  0  0  0  0  0  0  0  0  0  0  0
    4.1901   25.8569    7.1543 N   0  0  0  0  0  0  0  0  0  0  0  0
    2.1840   26.5798    8.2044 N   0  0  0  0  0  0  0  0  0  0  0  0
    3.3732   28.0533    6.7765 N   0  0  0  0  0  0  0  0  0  0  0  0
   -2.9343   30.2414   10.1392 C   0  0  0  0  0  0  0  0  0  0  0  0
    0.3431   31.1762    7.5638 C   0  0  0  0  0  0  0  0  0  0  0  0
   -0.7563   30.8441    8.4420 C   0  0  0  0  0  0  0  0  0  0  0  0
    0.1761   28.5532    8.7333 C   0  0  0  0  0  0  0  0  0  0  0  0
    3.1289   25.6018    7.9818 C   0  0  0  0  0  0  0  0  0  0  0  0
    4.3147   27.0899    6.5440 C   0  0  0  0  0  0  0  0  0  0  0  0
    1.3563   30.2041    7.2653 C   0  0  0  0  0  0  0  0  0  0  0  0
   -0.8767   29.5102    9.0558 C   0  0  0  0  0  0  0  0  0  0  0  0
    2.3009   27.8141    7.6036 C   0  0  0  0  0  0  0  0  0  0  0  0
    1.2751   28.8716    7.8616 C   0  0  0  0  0  0  0  0  0  0  0  0
    3.0988   29.8215    6.2349 H   0  0  0  0  0  0  0  0  0  0  0  0
    2.2221   24.2244    9.1879 H   0  0  0  0  0  0  0  0  0  0  0  0
    3.6841   23.6874    8.4302 H   0  0  0  0  0  0  0  0  0  0  0  0
    5.4187   28.2545    5.2952 H   0  0  0  0  0  0  0  0  0  0  0  0
    6.0374   26.6575    5.5541 H   0  0  0  0  0  0  0  0  0  0  0  0
   -3.6084   29.8319   10.7540 H   0  0  0  0  0  0  0  0  0  0  0  0
   -2.5226   31.0392   10.5798 H   0  0  0  0  0  0  0  0  0  0  0  0
   -3.3840   30.5236    9.2918 H   0  0  0  0  0  0  0  0  0  0  0  0
    0.3981   32.0900    7.1613 H   0  0  0  0  0  0  0  0  0  0  0  0
   -1.4513   31.5360    8.6375 H   0  0  0  0  0  0  0  0  0  0  0  0
    0.1319   27.6383    9.1347 H   0  0  0  0  0  0  0  0  0  0  0  0
  1 14  1  0  0  0  0
  2  8  1  0  0  0  0
  2 15  1  0  0  0  0
  3 12  1  0  0  0  0
  4 13  1  0  0  0  0
  5 12  2  0  0  0  0
  5 13  1  0  0  0  0
  6 12  1  0  0  0  0
  6 16  2  0  0  0  0
  7 13  2  0  0  0  0
  7 16  1  0  0  0  0
  9 10  1  0  0  0  0
  9 14  2  0  0  0  0
 10 15  2  0  0  0  0
 11 15  1  0  0  0  0
 11 17  2  0  0  0  0
 14 17  1  0  0  0  0
 16 17  1  0  0  0  0
  1 18  1  0  0  0  0
  3 19  1  0  0  0  0
  3 20  1  0  0  0  0
  4 21  1  0  0  0  0
  4 22  1  0  0  0  0
  8 23  1  0  0  0  0
  8 24  1  0  0  0  0
  8 25  1  0  0  0  0
  9 26  1  0  0  0  0
 10 27  1  0  0  0  0
 11 28  1  0  0  0  0
M  END
$$$$
