SU9_A_301
          05071912473D 1   1.00000     0.00000     0
            
 29 31  0  0  0  0            999 V2000
    2.4840   30.1725    6.0800 O   0  0  0  0  0  0  0  0  0  0  0  0
   -2.5980   28.4544   11.0377 O   0  0  0  0  0  0  0  0  0  0  0  0
    5.1311   26.0556    6.8697 N   0  0  0  0  0  0  0  0  0  0  0  0
    4.0787   27.9456    6.4252 N   0  0  0  0  0  0  0  0  0  0  0  0
    0.5730   30.9058    7.0880 N   0  0  0  0  0  0  0  0  0  0  0  0
   -2.0362   27.4938   11.9299 C   0  0  0  0  0  0  0  0  0  0  0  0
    5.1386   27.2054    6.1563 C   0  0  0  0  0  0  0  0  0  0  0  0
    3.9857   26.0786    7.6371 C   0  0  0  0  0  0  0  0  0  0  0  0
   -2.2023   30.3334    9.5780 C   0  0  0  0  0  0  0  0  0  0  0  0
   -1.4786   31.0442    8.5823 C   0  0  0  0  0  0  0  0  0  0  0  0
   -0.6141   28.4569    9.5145 C   0  0  0  0  0  0  0  0  0  0  0  0
    2.0962   27.6688    7.9747 C   0  0  0  0  0  0  0  0  0  0  0  0
    1.5765   29.9780    6.8966 C   0  0  0  0  0  0  0  0  0  0  0  0
   -1.8043   29.0381   10.0695 C   0  0  0  0  0  0  0  0  0  0  0  0
    3.3436   27.2702    7.3446 C   0  0  0  0  0  0  0  0  0  0  0  0
   -0.3110   30.4294    8.0602 C   0  0  0  0  0  0  0  0  0  0  0  0
    1.3440   28.8133    7.8060 C   0  0  0  0  0  0  0  0  0  0  0  0
    0.1223   29.1476    8.5204 C   0  0  0  0  0  0  0  0  0  0  0  0
    3.8592   28.8360    6.0266 H   0  0  0  0  0  0  0  0  0  0  0  0
    0.4913   31.7793    6.6080 H   0  0  0  0  0  0  0  0  0  0  0  0
   -2.7417   27.1737   12.5622 H   0  0  0  0  0  0  0  0  0  0  0  0
   -1.6820   26.7193   11.4058 H   0  0  0  0  0  0  0  0  0  0  0  0
   -1.2912   27.9150   12.4471 H   0  0  0  0  0  0  0  0  0  0  0  0
    5.8555   27.4618    5.5080 H   0  0  0  0  0  0  0  0  0  0  0  0
    3.6794   25.3744    8.2777 H   0  0  0  0  0  0  0  0  0  0  0  0
   -3.0278   30.7524    9.9560 H   0  0  0  0  0  0  0  0  0  0  0  0
   -1.7804   31.9422    8.2622 H   0  0  0  0  0  0  0  0  0  0  0  0
   -0.3036   27.5606    9.8312 H   0  0  0  0  0  0  0  0  0  0  0  0
    1.7258   27.0124    8.6320 H   0  0  0  0  0  0  0  0  0  0  0  0
  1 13  2  0  0  0  0
  2  6  1  0  0  0  0
  2 14  1  0  0  0  0
  3  7  2  0  0  0  0
  3  8  1  0  0  0  0
  4  7  1  0  0  0  0
  4 15  1  0  0  0  0
  5 13  1  0  0  0  0
  5 16  1  0  0  0  0
  8 15  2  0  0  0  0
  9 10  1  0  0  0  0
  9 14  2  0  0  0  0
 10 16  2  0  0  0  0
 11 14  1  0  0  0  0
 11 18  2  0  0  0  0
 12 15  1  0  0  0  0
 12 17  2  0  0  0  0
 13 17  1  0  0  0  0
 16 18  1  0  0  0  0
 17 18  1  0  0  0  0
  4 19  1  0  0  0  0
  5 20  1  0  0  0  0
  6 21  1  0  0  0  0
  6 22  1  0  0  0  0
  6 23  1  0  0  0  0
  7 24  1  0  0  0  0
  8 25  1  0  0  0  0
  9 26  1  0  0  0  0
 10 27  1  0  0  0  0
 11 28  1  0  0  0  0
 12 29  1  0  0  0  0
M  END
$$$$
