X07_A_543
          05071912473D 1   1.00000     0.00000     0
            
 32 33  0  0  0  0            999 V2000
   -3.0007   27.8397    8.6774 O   0  5  0  0  0  0  0  0  0  0  0  0
   -2.2160   25.9572    9.5024 O   0  0  0  0  0  0  0  0  0  0  0  0
    1.9980   30.3703    5.9519 O   0  0  0  0  0  0  0  0  0  0  0  0
    0.2374   31.2185    7.1757 N   0  0  0  0  0  0  0  0  0  0  0  0
    4.8160   25.6042    4.2748 N   0  0  0  0  0  0  0  0  0  0  0  0
    3.2414   28.3238    7.3346 N   0  0  0  0  0  0  0  0  0  0  0  0
   -1.9673   27.0044    8.9196 N   0  3  0  0  0  0  0  0  0  0  0  0
    4.9743   24.2984    4.7009 C   0  0  0  0  0  0  0  0  0  0  0  0
    4.6529   26.6619    5.1557 C   0  0  0  0  0  0  0  0  0  0  0  0
    4.4712   27.5385    7.5513 C   0  0  0  0  0  0  0  0  0  0  0  0
    4.9737   24.0060    6.0878 C   0  0  0  0  0  0  0  0  0  0  0  0
    4.8096   25.0681    7.0126 C   0  0  0  0  0  0  0  0  0  0  0  0
    1.6867   26.7478    8.3877 C   0  0  0  0  0  0  0  0  0  0  0  0
    0.3756   26.4211    8.7930 C   0  0  0  0  0  0  0  0  0  0  0  0
   -0.4493   28.5301    7.8604 C   0  0  0  0  0  0  0  0  0  0  0  0
    1.0330   30.1577    6.8543 C   0  0  0  0  0  0  0  0  0  0  0  0
    1.9914   27.9945    7.6957 C   0  0  0  0  0  0  0  0  0  0  0  0
   -0.7244   27.3060    8.5390 C   0  0  0  0  0  0  0  0  0  0  0  0
    4.6465   26.4131    6.5599 C   0  0  0  0  0  0  0  0  0  0  0  0
    0.8749   28.9091    7.4300 C   0  0  0  0  0  0  0  0  0  0  0  0
   -0.4972   31.1078    7.8452 H   0  0  0  0  0  0  0  0  0  0  0  0
    0.3888   32.1066    6.7418 H   0  0  0  0  0  0  0  0  0  0  0  0
    3.3514   29.2002    6.8659 H   0  0  0  0  0  0  0  0  0  0  0  0
    5.0887   23.5630    4.0330 H   0  0  0  0  0  0  0  0  0  0  0  0
    4.5405   27.5931    4.8090 H   0  0  0  0  0  0  0  0  0  0  0  0
    4.4402   27.1484    8.4715 H   0  0  0  0  0  0  0  0  0  0  0  0
    5.2568   28.1526    7.4759 H   0  0  0  0  0  0  0  0  0  0  0  0
    5.0873   23.0657    6.4088 H   0  0  0  0  0  0  0  0  0  0  0  0
    4.8079   24.8734    7.9935 H   0  0  0  0  0  0  0  0  0  0  0  0
    2.4287   26.1058    8.5807 H   0  0  0  0  0  0  0  0  0  0  0  0
    0.2099   25.5559    9.2663 H   0  0  0  0  0  0  0  0  0  0  0  0
   -1.2085   29.1539    7.6745 H   0  0  0  0  0  0  0  0  0  0  0  0
  1  7  1  0  0  0  0
  2  7  2  0  0  0  0
  3 16  2  0  0  0  0
  4 16  1  0  0  0  0
  5  8  2  0  0  0  0
  5  9  1  0  0  0  0
  6 10  1  0  0  0  0
  6 17  1  0  0  0  0
  7 18  1  0  0  0  0
  8 11  1  0  0  0  0
  9 19  2  0  0  0  0
 10 19  1  0  0  0  0
 11 12  2  0  0  0  0
 12 19  1  0  0  0  0
 13 14  1  0  0  0  0
 13 17  2  0  0  0  0
 14 18  2  0  0  0  0
 15 18  1  0  0  0  0
 15 20  2  0  0  0  0
 16 20  1  0  0  0  0
 17 20  1  0  0  0  0
  4 21  1  0  0  0  0
  4 22  1  0  0  0  0
  6 23  1  0  0  0  0
  8 24  1  0  0  0  0
  9 25  1  0  0  0  0
 10 26  1  0  0  0  0
 10 27  1  0  0  0  0
 11 28  1  0  0  0  0
 12 29  1  0  0  0  0
 13 30  1  0  0  0  0
 14 31  1  0  0  0  0
 15 32  1  0  0  0  0
M  CHG  2   1  -1   7   1
M  END
$$$$
