X06_A_300
          05071912473D 1   1.00000     0.00000     0
            
 24 25  0  0  0  0            999 V2000
   -2.5251   29.3959    9.9251 Cl  0  0  0  0  0  0  0  0  0  0  0  0
    2.2582   30.3912    6.5334 O   0  0  0  0  0  0  0  0  0  0  0  0
    2.7117   24.7010    8.9847 N   0  0  0  0  0  0  0  0  0  0  0  0
    4.8773   27.2885    6.0747 N   0  0  0  0  0  0  0  0  0  0  0  0
    3.8608   25.9249    7.5185 N   0  0  0  0  0  0  0  0  0  0  0  0
    1.8135   26.7113    8.5155 N   0  0  0  0  0  0  0  0  0  0  0  0
    2.9918   28.0874    6.9449 N   0  0  0  0  0  0  0  0  0  0  0  0
   -0.9496   30.9179    8.3077 C   0  0  0  0  0  0  0  0  0  0  0  0
    0.2009   31.1499    7.4947 C   0  0  0  0  0  0  0  0  0  0  0  0
   -0.1530   28.6260    8.7612 C   0  0  0  0  0  0  0  0  0  0  0  0
   -1.1279   29.6578    8.9383 C   0  0  0  0  0  0  0  0  0  0  0  0
    2.7988   25.7933    8.3285 C   0  0  0  0  0  0  0  0  0  0  0  0
    3.8968   27.0970    6.8536 C   0  0  0  0  0  0  0  0  0  0  0  0
    1.1761   30.1337    7.3080 C   0  0  0  0  0  0  0  0  0  0  0  0
    1.9645   27.8499    7.7907 C   0  0  0  0  0  0  0  0  0  0  0  0
    1.0150   28.8461    7.9438 C   0  0  0  0  0  0  0  0  0  0  0  0
    2.9524   29.6850    6.3934 H   0  0  0  0  0  0  0  0  0  0  0  0
    1.9408   24.5495    9.6033 H   0  0  0  0  0  0  0  0  0  0  0  0
    3.4144   23.9974    8.8798 H   0  0  0  0  0  0  0  0  0  0  0  0
    4.9475   28.1429    5.5598 H   0  0  0  0  0  0  0  0  0  0  0  0
    5.5812   26.5852    5.9747 H   0  0  0  0  0  0  0  0  0  0  0  0
   -1.6286   31.6413    8.4329 H   0  0  0  0  0  0  0  0  0  0  0  0
    0.3217   32.0381    7.0514 H   0  0  0  0  0  0  0  0  0  0  0  0
   -0.2828   27.7415    9.2094 H   0  0  0  0  0  0  0  0  0  0  0  0
  1 11  1  0  0  0  0
  2 14  1  0  0  0  0
  3 12  1  0  0  0  0
  4 13  1  0  0  0  0
  5 12  2  0  0  0  0
  5 13  1  0  0  0  0
  6 12  1  0  0  0  0
  6 15  2  0  0  0  0
  7 13  2  0  0  0  0
  7 15  1  0  0  0  0
  8  9  1  0  0  0  0
  8 11  2  0  0  0  0
  9 14  2  0  0  0  0
 10 11  1  0  0  0  0
 10 16  2  0  0  0  0
 14 16  1  0  0  0  0
 15 16  1  0  0  0  0
  2 17  1  0  0  0  0
  3 18  1  0  0  0  0
  3 19  1  0  0  0  0
  4 20  1  0  0  0  0
  4 21  1  0  0  0  0
  8 22  1  0  0  0  0
  9 23  1  0  0  0  0
 10 24  1  0  0  0  0
M  END
$$$$
