X0A_A_303
          05071912473D 1   1.00000     0.00000     0
            
 34 36  0  0  0  0            999 V2000
   -2.3389   29.3618    9.9412 Cl  0  0  0  0  0  0  0  0  0  0  0  0
    2.3512   30.5752    6.5177 O   0  0  0  0  0  0  0  0  0  0  0  0
    5.1498   27.5675    6.2372 N   0  0  0  0  0  0  0  0  0  0  0  0
    3.9792   26.0480    7.3684 N   0  0  0  0  0  0  0  0  0  0  0  0
    3.2079   28.2906    7.0197 N   0  0  0  0  0  0  0  0  0  0  0  0
    1.8538   26.7450    8.2595 N   0  0  0  0  0  0  0  0  0  0  0  0
    2.7053   24.6140    8.5208 N   0  0  0  0  0  0  0  0  0  0  0  0
   -0.2094   23.0799   11.0568 C   0  0  0  0  0  0  0  0  0  0  0  0
   -0.6055   23.8908    9.9619 C   0  0  0  0  0  0  0  0  0  0  0  0
    1.1669   22.8059   11.2762 C   0  0  0  0  0  0  0  0  0  0  0  0
   -0.8341   30.9797    8.3586 C   0  0  0  0  0  0  0  0  0  0  0  0
    0.2912   31.2658    7.5380 C   0  0  0  0  0  0  0  0  0  0  0  0
    0.3769   24.4266    9.0835 C   0  0  0  0  0  0  0  0  0  0  0  0
    2.1499   23.3419   10.4038 C   0  0  0  0  0  0  0  0  0  0  0  0
    0.0037   28.6930    8.7290 C   0  0  0  0  0  0  0  0  0  0  0  0
   -0.9751   29.6981    8.9496 C   0  0  0  0  0  0  0  0  0  0  0  0
    4.0985   27.2958    6.8828 C   0  0  0  0  0  0  0  0  0  0  0  0
    2.8363   25.8245    8.0496 C   0  0  0  0  0  0  0  0  0  0  0  0
    1.2838   30.2693    7.3040 C   0  0  0  0  0  0  0  0  0  0  0  0
    2.0958   27.9652    7.7174 C   0  0  0  0  0  0  0  0  0  0  0  0
    1.7703   24.1557    9.3019 C   0  0  0  0  0  0  0  0  0  0  0  0
    1.1465   28.9553    7.9066 C   0  0  0  0  0  0  0  0  0  0  0  0
    3.0567   29.8883    6.3430 H   0  0  0  0  0  0  0  0  0  0  0  0
    5.2809   28.4834    5.8578 H   0  0  0  0  0  0  0  0  0  0  0  0
    5.8509   26.8667    6.1056 H   0  0  0  0  0  0  0  0  0  0  0  0
    3.4095   23.9585    8.2482 H   0  0  0  0  0  0  0  0  0  0  0  0
   -0.8992   22.7014   11.6740 H   0  0  0  0  0  0  0  0  0  0  0  0
   -1.5742   24.0855    9.8079 H   0  0  0  0  0  0  0  0  0  0  0  0
    1.4443   22.2334   12.0477 H   0  0  0  0  0  0  0  0  0  0  0  0
   -1.5268   31.6827    8.5193 H   0  0  0  0  0  0  0  0  0  0  0  0
    0.3870   32.1705    7.1229 H   0  0  0  0  0  0  0  0  0  0  0  0
    0.0959   24.9947    8.3100 H   0  0  0  0  0  0  0  0  0  0  0  0
    3.1170   23.1455   10.5656 H   0  0  0  0  0  0  0  0  0  0  0  0
   -0.1062   27.7935    9.1519 H   0  0  0  0  0  0  0  0  0  0  0  0
  1 16  1  0  0  0  0
  2 19  1  0  0  0  0
  3 17  1  0  0  0  0
  4 17  2  0  0  0  0
  4 18  1  0  0  0  0
  5 17  1  0  0  0  0
  5 20  2  0  0  0  0
  6 18  2  0  0  0  0
  6 20  1  0  0  0  0
  7 18  1  0  0  0  0
  7 21  1  0  0  0  0
  8  9  2  0  0  0  0
  8 10  1  0  0  0  0
  9 13  1  0  0  0  0
 10 14  2  0  0  0  0
 11 12  1  0  0  0  0
 11 16  2  0  0  0  0
 12 19  2  0  0  0  0
 13 21  2  0  0  0  0
 14 21  1  0  0  0  0
 15 16  1  0  0  0  0
 15 22  2  0  0  0  0
 19 22  1  0  0  0  0
 20 22  1  0  0  0  0
  2 23  1  0  0  0  0
  3 24  1  0  0  0  0
  3 25  1  0  0  0  0
  7 26  1  0  0  0  0
  8 27  1  0  0  0  0
  9 28  1  0  0  0  0
 10 29  1  0  0  0  0
 11 30  1  0  0  0  0
 12 31  1  0  0  0  0
 13 32  1  0  0  0  0
 14 33  1  0  0  0  0
 15 34  1  0  0  0  0
M  END
$$$$
