X11_A_300
          05071912473D 1   1.00000     0.00000     0
            
 24 25  0  0  0  0            999 V2000
    2.2517   30.4134    6.5163 O   0  0  0  0  0  0  0  0  0  0  0  0
    2.3539   24.3288    8.6352 N   0  0  0  0  0  0  0  0  0  0  0  0
    4.9679   27.2300    5.8839 N   0  0  0  0  0  0  0  0  0  0  0  0
    3.6543   25.7903    7.2581 N   0  0  0  0  0  0  0  0  0  0  0  0
    1.6859   26.5916    8.2562 N   0  0  0  0  0  0  0  0  0  0  0  0
    2.9754   27.9981    6.9079 N   0  0  0  0  0  0  0  0  0  0  0  0
   -0.8971   31.0469    8.3824 C   0  0  0  0  0  0  0  0  0  0  0  0
   -1.1303   29.7661    8.9774 C   0  0  0  0  0  0  0  0  0  0  0  0
    0.2446   31.2579    7.5549 C   0  0  0  0  0  0  0  0  0  0  0  0
   -0.2142   28.7075    8.7448 C   0  0  0  0  0  0  0  0  0  0  0  0
    2.5686   25.5853    8.0411 C   0  0  0  0  0  0  0  0  0  0  0  0
    3.8541   27.0006    6.6911 C   0  0  0  0  0  0  0  0  0  0  0  0
    1.1580   30.2001    7.3181 C   0  0  0  0  0  0  0  0  0  0  0  0
    1.8919   27.8009    7.6866 C   0  0  0  0  0  0  0  0  0  0  0  0
    0.9325   28.9157    7.9178 C   0  0  0  0  0  0  0  0  0  0  0  0
    2.8992   29.6706    6.3459 H   0  0  0  0  0  0  0  0  0  0  0  0
    1.5516   24.1795    9.2131 H   0  0  0  0  0  0  0  0  0  0  0  0
    3.0036   23.5847    8.4798 H   0  0  0  0  0  0  0  0  0  0  0  0
    5.1077   28.1289    5.4685 H   0  0  0  0  0  0  0  0  0  0  0  0
    5.6268   26.4958    5.7205 H   0  0  0  0  0  0  0  0  0  0  0  0
   -1.5376   31.7968    8.5479 H   0  0  0  0  0  0  0  0  0  0  0  0
   -1.9341   29.6181    9.5536 H   0  0  0  0  0  0  0  0  0  0  0  0
    0.4013   32.1544    7.1405 H   0  0  0  0  0  0  0  0  0  0  0  0
   -0.3717   27.8122    9.1615 H   0  0  0  0  0  0  0  0  0  0  0  0
  1 13  1  0  0  0  0
  2 11  1  0  0  0  0
  3 12  1  0  0  0  0
  4 11  2  0  0  0  0
  4 12  1  0  0  0  0
  5 11  1  0  0  0  0
  5 14  2  0  0  0  0
  6 12  2  0  0  0  0
  6 14  1  0  0  0  0
  7  8  2  0  0  0  0
  7  9  1  0  0  0  0
  8 10  1  0  0  0  0
  9 13  2  0  0  0  0
 10 15  2  0  0  0  0
 13 15  1  0  0  0  0
 14 15  1  0  0  0  0
  1 16  1  0  0  0  0
  2 17  1  0  0  0  0
  2 18  1  0  0  0  0
  3 19  1  0  0  0  0
  3 20  1  0  0  0  0
  7 21  1  0  0  0  0
  8 22  1  0  0  0  0
  9 23  1  0  0  0  0
 10 24  1  0  0  0  0
M  END
$$$$
