X19_A_493
          05071912473D 1   1.00000     0.00000     0
            
 41 42  0  0  0  0            999 V2000
    2.6855   27.0912    7.4261 O   0  0  0  0  0  0  0  0  0  0  0  0
    1.0212   31.3177    7.0260 N   0  0  0  0  0  0  0  0  0  0  0  0
    2.0240   30.5525    6.5067 N   0  0  0  0  0  0  0  0  0  0  0  0
    3.7924   28.3769    5.9383 N   0  0  0  0  0  0  0  0  0  0  0  0
    4.7516   27.3197    5.5769 C   0  0  0  0  0  0  0  0  0  0  0  0
   -4.1344   26.6836   11.2875 C   0  0  0  0  0  0  0  0  0  0  0  0
   -1.0717   27.4636   11.7247 C   0  0  0  0  0  0  0  0  0  0  0  0
   -1.5019   25.9786    9.7481 C   0  0  0  0  0  0  0  0  0  0  0  0
   -3.2944   27.6399   10.4118 C   0  0  0  0  0  0  0  0  0  0  0  0
   -0.9346   31.0658    8.7734 C   0  0  0  0  0  0  0  0  0  0  0  0
   -1.2730   30.0020    9.8777 C   0  0  0  0  0  0  0  0  0  0  0  0
    0.3196   28.2713    8.9188 C   0  0  0  0  0  0  0  0  0  0  0  0
    2.8137   28.1657    6.8569 C   0  0  0  0  0  0  0  0  0  0  0  0
    0.2698   30.6416    7.9413 C   0  0  0  0  0  0  0  0  0  0  0  0
    1.9291   29.3537    7.0944 C   0  0  0  0  0  0  0  0  0  0  0  0
   -1.1568   28.5293    9.3320 C   0  0  1  0  0  0  0  0  0  0  0  0
    0.8411   29.3651    8.0035 C   0  0  0  0  0  0  0  0  0  0  0  0
   -1.7409   27.4106   10.3180 C   0  0  0  0  0  0  0  0  0  0  0  0
    2.6971   30.8320    5.8220 H   0  0  0  0  0  0  0  0  0  0  0  0
    3.8629   29.2716    5.4972 H   0  0  0  0  0  0  0  0  0  0  0  0
    5.3884   27.6684    4.8892 H   0  0  0  0  0  0  0  0  0  0  0  0
    5.2606   27.0391    6.3906 H   0  0  0  0  0  0  0  0  0  0  0  0
    4.2572   26.5339    5.2054 H   0  0  0  0  0  0  0  0  0  0  0  0
   -5.0964   26.9537   11.2478 H   0  0  0  0  0  0  0  0  0  0  0  0
   -4.0366   25.7482   10.9480 H   0  0  0  0  0  0  0  0  0  0  0  0
   -3.8140   26.7300   12.2337 H   0  0  0  0  0  0  0  0  0  0  0  0
   -1.2049   28.3710   12.1232 H   0  0  0  0  0  0  0  0  0  0  0  0
   -1.4880   26.7746   12.3180 H   0  0  0  0  0  0  0  0  0  0  0  0
   -0.0930   27.2792   11.6353 H   0  0  0  0  0  0  0  0  0  0  0  0
   -1.9191   25.9065    8.8421 H   0  0  0  0  0  0  0  0  0  0  0  0
   -0.5191   25.8079    9.6770 H   0  0  0  0  0  0  0  0  0  0  0  0
   -1.9141   25.3034   10.3597 H   0  0  0  0  0  0  0  0  0  0  0  0
   -3.4345   28.5640   10.7673 H   0  0  0  0  0  0  0  0  0  0  0  0
   -3.6571   27.5821    9.4816 H   0  0  0  0  0  0  0  0  0  0  0  0
   -0.7330   31.9400    9.2151 H   0  0  0  0  0  0  0  0  0  0  0  0
   -1.7254   31.1715    8.1706 H   0  0  0  0  0  0  0  0  0  0  0  0
   -2.2079   30.1550   10.1979 H   0  0  0  0  0  0  0  0  0  0  0  0
   -0.6366   30.1149   10.6407 H   0  0  0  0  0  0  0  0  0  0  0  0
    0.3748   27.3944    8.4413 H   0  0  0  0  0  0  0  0  0  0  0  0
    0.8864   28.2389    9.7420 H   0  0  0  0  0  0  0  0  0  0  0  0
   -1.7018   28.4885    8.4945 H   0  0  0  0  0  0  0  0  0  0  0  0
  1 13  2  0  0  0  0
  2  3  1  0  0  0  0
  2 14  2  0  0  0  0
  3 15  1  0  0  0  0
  4  5  1  0  0  0  0
  4 13  1  0  0  0  0
  6  9  1  0  0  0  0
  7 18  1  0  0  0  0
  8 18  1  0  0  0  0
  9 18  1  0  0  0  0
 10 11  1  0  0  0  0
 10 14  1  0  0  0  0
 11 16  1  0  0  0  0
 12 16  1  0  0  0  0
 12 17  1  0  0  0  0
 13 15  1  0  0  0  0
 14 17  1  0  0  0  0
 15 17  2  0  0  0  0
 16 18  1  0  0  0  0
  3 19  1  0  0  0  0
  4 20  1  0  0  0  0
  5 21  1  0  0  0  0
  5 22  1  0  0  0  0
  5 23  1  0  0  0  0
  6 24  1  0  0  0  0
  6 25  1  0  0  0  0
  6 26  1  0  0  0  0
  7 27  1  0  0  0  0
  7 28  1  0  0  0  0
  7 29  1  0  0  0  0
  8 30  1  0  0  0  0
  8 31  1  0  0  0  0
  8 32  1  0  0  0  0
  9 33  1  0  0  0  0
  9 34  1  0  0  0  0
 10 35  1  0  0  0  0
 10 36  1  0  0  0  0
 11 37  1  0  0  0  0
 11 38  1  0  0  0  0
 12 39  1  0  0  0  0
 12 40  1  0  0  0  0
 16 41  1  0  0  0  0
M  END
$$$$
