X46_A_299
          05071912473D 1   1.00000     0.00000     0
            
 38 40  0  0  0  0            999 V2000
    1.6731   27.8513    7.7394 S   0  0  0  0  0  0  0  0  0  0  0  0
   -1.0974   30.1085    9.5248 O   0  0  0  0  0  0  0  0  0  0  0  0
   -1.1963   24.0132    9.0119 O   0  0  0  0  0  0  0  0  0  0  0  0
    0.4661   31.5114    7.6776 N   0  0  0  0  0  0  0  0  0  0  0  0
    2.1229   30.1423    6.6416 N   0  0  0  0  0  0  0  0  0  0  0  0
    3.6242   28.4478    5.8668 N   0  0  0  0  0  0  0  0  0  0  0  0
   -1.4408   22.7774    9.4686 C   0  0  0  0  0  0  0  0  0  0  0  0
    6.0640   24.8377    6.0324 C   0  0  0  0  0  0  0  0  0  0  0  0
    5.0132   24.9985    7.0376 C   0  0  0  0  0  0  0  0  0  0  0  0
    6.2782   25.8855    5.0063 C   0  0  0  0  0  0  0  0  0  0  0  0
   -1.0547   26.4381   12.0624 C   0  0  0  0  0  0  0  0  0  0  0  0
   -1.1971   25.1816   11.2908 C   0  0  0  0  0  0  0  0  0  0  0  0
    4.1934   26.1791    7.0095 C   0  0  0  0  0  0  0  0  0  0  0  0
    5.4626   27.0739    4.9722 C   0  0  0  0  0  0  0  0  0  0  0  0
   -0.7857   27.6736   11.3596 C   0  0  0  0  0  0  0  0  0  0  0  0
   -0.8004   26.4434    9.1200 C   0  0  0  0  0  0  0  0  0  0  0  0
    2.5565   28.8605    6.6630 C   0  0  0  0  0  0  0  0  0  0  0  0
    0.7152   29.1612    8.1833 C   0  0  0  0  0  0  0  0  0  0  0  0
   -0.3781   29.0234    9.2114 C   0  0  0  0  0  0  0  0  0  0  0  0
   -1.0683   25.1883    9.8056 C   0  0  0  0  0  0  0  0  0  0  0  0
    1.0769   30.3152    7.5014 C   0  0  0  0  0  0  0  0  0  0  0  0
    4.3913   27.2711    5.9620 C   0  0  0  0  0  0  0  0  0  0  0  0
   -0.6529   27.7119    9.8885 C   0  0  0  0  0  0  0  0  0  0  0  0
   -0.2973   31.5934    8.3183 H   0  0  0  0  0  0  0  0  0  0  0  0
    0.7787   32.3124    7.1671 H   0  0  0  0  0  0  0  0  0  0  0  0
    3.8796   29.0720    5.1284 H   0  0  0  0  0  0  0  0  0  0  0  0
   -1.4814   22.1397    8.6994 H   0  0  0  0  0  0  0  0  0  0  0  0
   -0.7092   22.5015   10.0920 H   0  0  0  0  0  0  0  0  0  0  0  0
   -2.3144   22.7686    9.9553 H   0  0  0  0  0  0  0  0  0  0  0  0
    6.6387   24.0193    6.0377 H   0  0  0  0  0  0  0  0  0  0  0  0
    4.8672   24.2967    7.7348 H   0  0  0  0  0  0  0  0  0  0  0  0
    7.0011   25.7661    4.3257 H   0  0  0  0  0  0  0  0  0  0  0  0
   -1.1435   26.4323   13.0584 H   0  0  0  0  0  0  0  0  0  0  0  0
   -1.3810   24.3231   11.7695 H   0  0  0  0  0  0  0  0  0  0  0  0
    3.4736   26.2878    7.6952 H   0  0  0  0  0  0  0  0  0  0  0  0
    5.6258   27.7686    4.2716 H   0  0  0  0  0  0  0  0  0  0  0  0
   -0.6875   28.5211   11.8812 H   0  0  0  0  0  0  0  0  0  0  0  0
   -0.7145   26.4551    8.1238 H   0  0  0  0  0  0  0  0  0  0  0  0
  1 17  1  0  0  0  0
  1 18  1  0  0  0  0
  2 19  2  0  0  0  0
  3  7  1  0  0  0  0
  3 20  1  0  0  0  0
  4 21  1  0  0  0  0
  5 17  2  0  0  0  0
  5 21  1  0  0  0  0
  6 17  1  0  0  0  0
  6 22  1  0  0  0  0
  8  9  2  0  0  0  0
  8 10  1  0  0  0  0
  9 13  1  0  0  0  0
 10 14  2  0  0  0  0
 11 12  2  0  0  0  0
 11 15  1  0  0  0  0
 12 20  1  0  0  0  0
 13 22  2  0  0  0  0
 14 22  1  0  0  0  0
 15 23  2  0  0  0  0
 16 20  2  0  0  0  0
 16 23  1  0  0  0  0
 18 19  1  0  0  0  0
 18 21  2  0  0  0  0
 19 23  1  0  0  0  0
  4 24  1  0  0  0  0
  4 25  1  0  0  0  0
  6 26  1  0  0  0  0
  7 27  1  0  0  0  0
  7 28  1  0  0  0  0
  7 29  1  0  0  0  0
  8 30  1  0  0  0  0
  9 31  1  0  0  0  0
 10 32  1  0  0  0  0
 11 33  1  0  0  0  0
 12 34  1  0  0  0  0
 13 35  1  0  0  0  0
 14 36  1  0  0  0  0
 15 37  1  0  0  0  0
 16 38  1  0  0  0  0
M  END
$$$$
