X3A_A_451
          05071912473D 1   1.00000     0.00000     0
            
 33 35  0  0  0  0            999 V2000
    1.0480   28.1150    8.0754 S   0  0  0  0  0  0  0  0  0  0  0  0
   -1.7285   30.7556    9.1346 O   0  0  0  0  0  0  0  0  0  0  0  0
    0.1449   31.7950    7.3466 N   0  0  0  0  0  0  0  0  0  0  0  0
   -3.3651   27.1262   10.9152 N   0  0  0  0  0  0  0  0  0  0  0  0
    1.7345   30.2143    6.7702 N   0  0  0  0  0  0  0  0  0  0  0  0
    3.2131   28.4486    6.3540 N   0  0  0  0  0  0  0  0  0  0  0  0
   -2.4597   26.3641   11.6735 C   0  0  0  0  0  0  0  0  0  0  0  0
   -2.9727   28.1706   10.0631 C   0  0  0  0  0  0  0  0  0  0  0  0
   -1.0625   26.6440   11.5991 C   0  0  0  0  0  0  0  0  0  0  0  0
    5.2188   24.6524    6.3968 C   0  0  0  0  0  0  0  0  0  0  0  0
    5.6860   25.7381    5.5616 C   0  0  0  0  0  0  0  0  0  0  0  0
    4.0646   24.8234    7.2391 C   0  0  0  0  0  0  0  0  0  0  0  0
    4.9999   26.9997    5.5666 C   0  0  0  0  0  0  0  0  0  0  0  0
    3.3747   26.0770    7.2451 C   0  0  0  0  0  0  0  0  0  0  0  0
   -0.6209   27.7080   10.7389 C   0  0  0  0  0  0  0  0  0  0  0  0
    2.0905   28.9460    6.9932 C   0  0  0  0  0  0  0  0  0  0  0  0
    0.0982   29.5283    8.2457 C   0  0  0  0  0  0  0  0  0  0  0  0
    0.6336   30.5535    7.4530 C   0  0  0  0  0  0  0  0  0  0  0  0
   -1.0347   29.6084    9.0688 C   0  0  0  0  0  0  0  0  0  0  0  0
    3.8264   27.2034    6.4047 C   0  0  0  0  0  0  0  0  0  0  0  0
   -1.5633   28.4952    9.9457 C   0  0  0  0  0  0  0  0  0  0  0  0
   -0.6769   32.0541    7.8541 H   0  0  0  0  0  0  0  0  0  0  0  0
    0.6016   32.4636    6.7597 H   0  0  0  0  0  0  0  0  0  0  0  0
    3.6633   29.1032    5.7467 H   0  0  0  0  0  0  0  0  0  0  0  0
   -2.7935   25.6284   12.2629 H   0  0  0  0  0  0  0  0  0  0  0  0
   -3.6556   28.6842    9.5436 H   0  0  0  0  0  0  0  0  0  0  0  0
   -0.4053   26.1121   12.1331 H   0  0  0  0  0  0  0  0  0  0  0  0
    5.7017   23.7768    6.3886 H   0  0  0  0  0  0  0  0  0  0  0  0
    6.4887   25.6094    4.9793 H   0  0  0  0  0  0  0  0  0  0  0  0
    3.7468   24.0712    7.8164 H   0  0  0  0  0  0  0  0  0  0  0  0
    5.3313   27.7458    4.9890 H   0  0  0  0  0  0  0  0  0  0  0  0
    2.5714   26.1921    7.8294 H   0  0  0  0  0  0  0  0  0  0  0  0
    0.3558   27.9148   10.6817 H   0  0  0  0  0  0  0  0  0  0  0  0
  1 16  1  0  0  0  0
  1 17  1  0  0  0  0
  2 19  2  0  0  0  0
  3 18  1  0  0  0  0
  4  7  2  0  0  0  0
  4  8  1  0  0  0  0
  5 16  2  0  0  0  0
  5 18  1  0  0  0  0
  6 16  1  0  0  0  0
  6 20  1  0  0  0  0
  7  9  1  0  0  0  0
  8 21  2  0  0  0  0
  9 15  2  0  0  0  0
 10 11  2  0  0  0  0
 10 12  1  0  0  0  0
 11 13  1  0  0  0  0
 12 14  2  0  0  0  0
 13 20  2  0  0  0  0
 14 20  1  0  0  0  0
 15 21  1  0  0  0  0
 17 18  2  0  0  0  0
 17 19  1  0  0  0  0
 19 21  1  0  0  0  0
  3 22  1  0  0  0  0
  3 23  1  0  0  0  0
  6 24  1  0  0  0  0
  7 25  1  0  0  0  0
  8 26  1  0  0  0  0
  9 27  1  0  0  0  0
 10 28  1  0  0  0  0
 11 29  1  0  0  0  0
 12 30  1  0  0  0  0
 13 31  1  0  0  0  0
 14 32  1  0  0  0  0
 15 33  1  0  0  0  0
M  END
$$$$
