X67_A_471
          05071912473D 1   1.00000     0.00000     0
            
 24 25  0  0  0  0            999 V2000
   -2.1897   29.6199    9.9659 F   0  0  0  0  0  0  0  0  0  0  0  0
    2.0146   30.4335    6.5022 O   0  0  0  0  0  0  0  0  0  0  0  0
    4.8615   27.2969    5.9922 N   0  0  0  0  0  0  0  0  0  0  0  0
    2.5055   24.5965    8.9754 N   0  0  0  0  0  0  0  0  0  0  0  0
    3.6873   25.9149    7.4979 N   0  0  0  0  0  0  0  0  0  0  0  0
    2.9021   28.0716    6.9980 N   0  0  0  0  0  0  0  0  0  0  0  0
    1.6978   26.7162    8.5127 N   0  0  0  0  0  0  0  0  0  0  0  0
   -1.0143   31.0467    8.4418 C   0  0  0  0  0  0  0  0  0  0  0  0
    0.0658   31.2598    7.5501 C   0  0  0  0  0  0  0  0  0  0  0  0
   -0.2086   28.7719    8.9030 C   0  0  0  0  0  0  0  0  0  0  0  0
   -1.1523   29.8087    9.1121 C   0  0  0  0  0  0  0  0  0  0  0  0
    3.8206   27.0938    6.8249 C   0  0  0  0  0  0  0  0  0  0  0  0
    2.6286   25.7167    8.3435 C   0  0  0  0  0  0  0  0  0  0  0  0
    1.0465   30.2313    7.3050 C   0  0  0  0  0  0  0  0  0  0  0  0
    1.8248   27.9159    7.8382 C   0  0  0  0  0  0  0  0  0  0  0  0
    0.9148   28.9408    8.0042 C   0  0  0  0  0  0  0  0  0  0  0  0
    2.6886   29.7127    6.3401 H   0  0  0  0  0  0  0  0  0  0  0  0
    4.9492   28.1652    5.5039 H   0  0  0  0  0  0  0  0  0  0  0  0
    5.5458   26.5793    5.8630 H   0  0  0  0  0  0  0  0  0  0  0  0
    1.7320   24.4529    9.5926 H   0  0  0  0  0  0  0  0  0  0  0  0
    3.1839   23.8730    8.8473 H   0  0  0  0  0  0  0  0  0  0  0  0
   -1.6820   31.7745    8.5980 H   0  0  0  0  0  0  0  0  0  0  0  0
    0.1498   32.1396    7.0822 H   0  0  0  0  0  0  0  0  0  0  0  0
   -0.3210   27.9041    9.3870 H   0  0  0  0  0  0  0  0  0  0  0  0
  1 11  1  0  0  0  0
  2 14  1  0  0  0  0
  3 12  1  0  0  0  0
  4 13  1  0  0  0  0
  5 12  2  0  0  0  0
  5 13  1  0  0  0  0
  6 12  1  0  0  0  0
  6 15  2  0  0  0  0
  7 13  2  0  0  0  0
  7 15  1  0  0  0  0
  8  9  1  0  0  0  0
  8 11  2  0  0  0  0
  9 14  2  0  0  0  0
 10 11  1  0  0  0  0
 10 16  2  0  0  0  0
 14 16  1  0  0  0  0
 15 16  1  0  0  0  0
  2 17  1  0  0  0  0
  3 18  1  0  0  0  0
  3 19  1  0  0  0  0
  4 20  1  0  0  0  0
  4 21  1  0  0  0  0
  8 22  1  0  0  0  0
  9 23  1  0  0  0  0
 10 24  1  0  0  0  0
M  END
$$$$
