X72_A_512
          05071912473D 1   1.00000     0.00000     0
            
 31 32  0  0  0  0            999 V2000
   -0.4991   24.9380    8.7307 Cl  0  0  0  0  0  0  0  0  0  0  0  0
   -2.7268   26.3931    9.3478 O   0  5  0  0  0  0  0  0  0  0  0  0
   -3.3423   28.2267    8.2088 O   0  0  0  0  0  0  0  0  0  0  0  0
    1.7483   30.5794    6.0282 O   0  0  0  0  0  0  0  0  0  0  0  0
    0.2146   31.4916    7.3546 N   0  0  0  0  0  0  0  0  0  0  0  0
    5.1906   24.3039    5.9336 N   0  0  0  0  0  0  0  0  0  0  0  0
    4.5233   25.8075    4.1692 N   0  0  0  0  0  0  0  0  0  0  0  0
    2.8134   28.3509    7.0420 N   0  0  0  0  0  0  0  0  0  0  0  0
   -2.3874   27.3923    8.5738 N   0  3  0  0  0  0  0  0  0  0  0  0
    5.0091   24.6227    4.6250 C   0  0  0  0  0  0  0  0  0  0  0  0
    4.8505   25.2687    6.8438 C   0  0  0  0  0  0  0  0  0  0  0  0
    4.2025   26.7314    5.1176 C   0  0  0  0  0  0  0  0  0  0  0  0
    3.9723   27.5591    7.5239 C   0  0  0  0  0  0  0  0  0  0  0  0
    1.1822   26.8154    7.8467 C   0  0  0  0  0  0  0  0  0  0  0  0
   -0.7576   28.8795    7.7564 C   0  0  0  0  0  0  0  0  0  0  0  0
    0.8993   30.4183    6.8936 C   0  0  0  0  0  0  0  0  0  0  0  0
   -0.1482   26.5430    8.2404 C   0  0  0  0  0  0  0  0  0  0  0  0
    1.5766   28.1145    7.4006 C   0  0  0  0  0  0  0  0  0  0  0  0
    4.3428   26.5207    6.4951 C   0  0  0  0  0  0  0  0  0  0  0  0
   -1.1504   27.5866    8.2124 C   0  0  0  0  0  0  0  0  0  0  0  0
    0.5917   29.1553    7.3435 C   0  0  0  0  0  0  0  0  0  0  0  0
   -0.4823   31.3740    8.0620 H   0  0  0  0  0  0  0  0  0  0  0  0
    0.4059   32.4020    6.9877 H   0  0  0  0  0  0  0  0  0  0  0  0
    2.9865   29.1057    6.4092 H   0  0  0  0  0  0  0  0  0  0  0  0
    5.2520   23.9316    3.9443 H   0  0  0  0  0  0  0  0  0  0  0  0
    4.9732   25.0641    7.8149 H   0  0  0  0  0  0  0  0  0  0  0  0
    3.8452   27.6138    4.8115 H   0  0  0  0  0  0  0  0  0  0  0  0
    3.7309   27.1055    8.3818 H   0  0  0  0  0  0  0  0  0  0  0  0
    4.7505   28.1683    7.6764 H   0  0  0  0  0  0  0  0  0  0  0  0
    1.8621   26.0829    7.8813 H   0  0  0  0  0  0  0  0  0  0  0  0
   -1.4373   29.6122    7.7230 H   0  0  0  0  0  0  0  0  0  0  0  0
  1 17  1  0  0  0  0
  2  9  1  0  0  0  0
  3  9  2  0  0  0  0
  4 16  2  0  0  0  0
  5 16  1  0  0  0  0
  6 10  2  0  0  0  0
  6 11  1  0  0  0  0
  7 10  1  0  0  0  0
  7 12  2  0  0  0  0
  8 13  1  0  0  0  0
  8 18  1  0  0  0  0
  9 20  1  0  0  0  0
 11 19  2  0  0  0  0
 12 19  1  0  0  0  0
 13 19  1  0  0  0  0
 14 17  2  0  0  0  0
 14 18  1  0  0  0  0
 15 20  2  0  0  0  0
 15 21  1  0  0  0  0
 16 21  1  0  0  0  0
 17 20  1  0  0  0  0
 18 21  2  0  0  0  0
  5 22  1  0  0  0  0
  5 23  1  0  0  0  0
  8 24  1  0  0  0  0
 10 25  1  0  0  0  0
 11 26  1  0  0  0  0
 12 27  1  0  0  0  0
 13 28  1  0  0  0  0
 13 29  1  0  0  0  0
 14 30  1  0  0  0  0
 15 31  1  0  0  0  0
M  CHG  2   2  -1   9   1
M  END
$$$$
