X88_A_919
          05071912473D 1   1.00000     0.00000     0
            
 31 32  0  0  0  0            999 V2000
   -2.9570   27.3776    8.6396 O   0  5  0  0  0  0  0  0  0  0  0  0
   -2.0737   25.4803    9.2727 O   0  0  0  0  0  0  0  0  0  0  0  0
    1.9987   30.3783    6.0445 O   0  0  0  0  0  0  0  0  0  0  0  0
    0.1278   31.0610    7.2130 N   0  0  0  0  0  0  0  0  0  0  0  0
    4.5396   25.8479    3.9027 N   0  0  0  0  0  0  0  0  0  0  0  0
    5.7368   25.5051    6.3488 N   0  0  0  0  0  0  0  0  0  0  0  0
    3.2872   28.2464    7.2422 N   0  0  0  0  0  0  0  0  0  0  0  0
   -1.8791   26.5795    8.7829 N   0  3  0  0  0  0  0  0  0  0  0  0
    5.4325   24.8081    4.0678 C   0  0  0  0  0  0  0  0  0  0  0  0
    6.0488   24.6300    5.3248 C   0  0  0  0  0  0  0  0  0  0  0  0
    4.2220   26.7267    4.9174 C   0  0  0  0  0  0  0  0  0  0  0  0
    4.5464   27.4783    7.3743 C   0  0  0  0  0  0  0  0  0  0  0  0
    1.7987   26.5405    8.1734 C   0  0  0  0  0  0  0  0  0  0  0  0
    0.5007   26.1248    8.5631 C   0  0  0  0  0  0  0  0  0  0  0  0
   -0.4184   28.2826    7.8225 C   0  0  0  0  0  0  0  0  0  0  0  0
    0.9993   30.0557    6.8871 C   0  0  0  0  0  0  0  0  0  0  0  0
    4.8374   26.5570    6.1932 C   0  0  0  0  0  0  0  0  0  0  0  0
    2.0537   27.8537    7.5900 C   0  0  0  0  0  0  0  0  0  0  0  0
   -0.6403   26.9777    8.4031 C   0  0  0  0  0  0  0  0  0  0  0  0
    0.8930   28.7570    7.4053 C   0  0  0  0  0  0  0  0  0  0  0  0
   -0.6342   30.8802    7.8348 H   0  0  0  0  0  0  0  0  0  0  0  0
    0.2536   31.9758    6.8291 H   0  0  0  0  0  0  0  0  0  0  0  0
    3.3661   29.1623    6.8486 H   0  0  0  0  0  0  0  0  0  0  0  0
    5.6393   24.1908    3.3088 H   0  0  0  0  0  0  0  0  0  0  0  0
    6.6991   23.8848    5.4721 H   0  0  0  0  0  0  0  0  0  0  0  0
    3.5714   27.4700    4.7614 H   0  0  0  0  0  0  0  0  0  0  0  0
    4.4890   26.9201    8.2020 H   0  0  0  0  0  0  0  0  0  0  0  0
    5.3027   28.1267    7.4614 H   0  0  0  0  0  0  0  0  0  0  0  0
    2.5660   25.9124    8.3027 H   0  0  0  0  0  0  0  0  0  0  0  0
    0.3781   25.2147    8.9590 H   0  0  0  0  0  0  0  0  0  0  0  0
   -1.2042   28.8892    7.7016 H   0  0  0  0  0  0  0  0  0  0  0  0
  1  8  1  0  0  0  0
  2  8  2  0  0  0  0
  3 16  2  0  0  0  0
  4 16  1  0  0  0  0
  5  9  2  0  0  0  0
  5 11  1  0  0  0  0
  6 10  2  0  0  0  0
  6 17  1  0  0  0  0
  7 12  1  0  0  0  0
  7 18  1  0  0  0  0
  8 19  1  0  0  0  0
  9 10  1  0  0  0  0
 11 17  2  0  0  0  0
 12 17  1  0  0  0  0
 13 14  1  0  0  0  0
 13 18  2  0  0  0  0
 14 19  2  0  0  0  0
 15 19  1  0  0  0  0
 15 20  2  0  0  0  0
 16 20  1  0  0  0  0
 18 20  1  0  0  0  0
  4 21  1  0  0  0  0
  4 22  1  0  0  0  0
  7 23  1  0  0  0  0
  9 24  1  0  0  0  0
 10 25  1  0  0  0  0
 11 26  1  0  0  0  0
 12 27  1  0  0  0  0
 12 28  1  0  0  0  0
 13 29  1  0  0  0  0
 14 30  1  0  0  0  0
 15 31  1  0  0  0  0
M  CHG  2   1  -1   8   1
M  END
$$$$
