Z14_A_589
          05071912473D 1   1.00000     0.00000     0
            
 50 52  0  0  0  0            999 V2000
   -1.7700   26.1078   10.3004 O   0  5  0  0  0  0  0  0  0  0  0  0
   -2.6623   27.4377    8.7284 O   0  0  0  0  0  0  0  0  0  0  0  0
    1.8997   30.2691    6.0407 O   0  0  0  0  0  0  0  0  0  0  0  0
    5.3567   23.2328    4.2287 N   0  0  0  0  0  0  0  0  0  0  0  0
    0.2355   31.0597    7.3061 N   0  0  0  0  0  0  0  0  0  0  0  0
    0.1612   21.3430   11.5676 N   0  0  0  0  0  0  0  0  0  0  0  0
    5.3191   24.0600    6.3245 N   0  0  0  0  0  0  0  0  0  0  0  0
    4.9297   25.4426    4.3714 N   0  0  0  0  0  0  0  0  0  0  0  0
    3.3292   28.3126    7.1928 N   0  0  0  0  0  0  0  0  0  0  0  0
   -1.5972   26.8695    9.2542 N   0  3  0  0  0  0  0  0  0  0  0  0
    0.7078   25.0225    9.4513 N   0  0  0  0  0  0  0  0  0  0  0  0
    5.1414   25.1760    7.1063 C   0  0  0  0  0  0  0  0  0  0  0  0
    4.7623   26.5228    5.2023 C   0  0  0  0  0  0  0  0  0  0  0  0
    4.6522   27.6534    7.4972 C   0  0  0  0  0  0  0  0  0  0  0  0
   -0.3081   24.0254    8.9381 C   0  0  0  0  0  0  0  0  0  0  0  0
    1.7743   24.5848   10.4149 C   0  0  0  0  0  0  0  0  0  0  0  0
   -0.6917   22.9502    9.9648 C   0  0  0  0  0  0  0  0  0  0  0  0
    1.3337   23.4585   11.3611 C   0  0  0  0  0  0  0  0  0  0  0  0
    1.9947   26.6641    8.3443 C   0  0  0  0  0  0  0  0  0  0  0  0
   -0.2320   28.3925    8.1223 C   0  0  0  0  0  0  0  0  0  0  0  0
    5.2014   24.2499    4.9784 C   0  0  0  0  0  0  0  0  0  0  0  0
    1.0949   30.0511    6.9394 C   0  0  0  0  0  0  0  0  0  0  0  0
    0.5598   22.3672   10.6155 C   0  0  0  0  0  0  0  0  0  0  0  0
    2.1636   27.9383    7.6898 C   0  0  0  0  0  0  0  0  0  0  0  0
   -0.4120   27.1346    8.7863 C   0  0  0  0  0  0  0  0  0  0  0  0
    0.7434   26.2292    8.8929 C   0  0  0  0  0  0  0  0  0  0  0  0
    4.8564   26.4503    6.5960 C   0  0  0  0  0  0  0  0  0  0  0  0
    1.0223   28.8073    7.5723 C   0  0  0  0  0  0  0  0  0  0  0  0
    5.2791   23.3267    3.2362 H   0  0  0  0  0  0  0  0  0  0  0  0
    5.5564   22.3399    4.6324 H   0  0  0  0  0  0  0  0  0  0  0  0
   -0.4307   30.9081    8.0363 H   0  0  0  0  0  0  0  0  0  0  0  0
    0.2766   31.9448    6.8425 H   0  0  0  0  0  0  0  0  0  0  0  0
    0.9751   20.9546   11.9996 H   0  0  0  0  0  0  0  0  0  0  0  0
   -0.4261   21.7492   12.2677 H   0  0  0  0  0  0  0  0  0  0  0  0
    3.3352   29.0925    6.5669 H   0  0  0  0  0  0  0  0  0  0  0  0
    5.2200   25.0731    8.0978 H   0  0  0  0  0  0  0  0  0  0  0  0
    4.5621   27.4107    4.7881 H   0  0  0  0  0  0  0  0  0  0  0  0
    4.6616   27.3565    8.4521 H   0  0  0  0  0  0  0  0  0  0  0  0
    5.3912   28.3097    7.3449 H   0  0  0  0  0  0  0  0  0  0  0  0
    0.0742   23.5712    8.1334 H   0  0  0  0  0  0  0  0  0  0  0  0
   -1.1355   24.5232    8.6784 H   0  0  0  0  0  0  0  0  0  0  0  0
    2.0421   25.3739   10.9678 H   0  0  0  0  0  0  0  0  0  0  0  0
    2.5617   24.2639    9.8886 H   0  0  0  0  0  0  0  0  0  0  0  0
   -1.1949   22.2191    9.5042 H   0  0  0  0  0  0  0  0  0  0  0  0
   -1.2700   23.3595   10.6705 H   0  0  0  0  0  0  0  0  0  0  0  0
    0.7468   23.8438   12.0733 H   0  0  0  0  0  0  0  0  0  0  0  0
    2.1448   23.0518   11.7816 H   0  0  0  0  0  0  0  0  0  0  0  0
    2.7857   26.0569    8.4189 H   0  0  0  0  0  0  0  0  0  0  0  0
   -1.0169   29.0065    8.0400 H   0  0  0  0  0  0  0  0  0  0  0  0
    1.1449   21.9620    9.9130 H   0  0  0  0  0  0  0  0  0  0  0  0
  1 10  1  0  0  0  0
  2 10  2  0  0  0  0
  3 22  2  0  0  0  0
  4 21  1  0  0  0  0
  5 22  1  0  0  0  0
  6 23  1  0  0  0  0
  7 12  1  0  0  0  0
  7 21  2  0  0  0  0
  8 13  2  0  0  0  0
  8 21  1  0  0  0  0
  9 14  1  0  0  0  0
  9 24  1  0  0  0  0
 10 25  1  0  0  0  0
 11 15  1  0  0  0  0
 11 16  1  0  0  0  0
 11 26  1  0  0  0  0
 12 27  2  0  0  0  0
 13 27  1  0  0  0  0
 14 27  1  0  0  0  0
 15 17  1  0  0  0  0
 16 18  1  0  0  0  0
 17 23  1  0  0  0  0
 18 23  1  0  0  0  0
 19 24  1  0  0  0  0
 19 26  2  0  0  0  0
 20 25  2  0  0  0  0
 20 28  1  0  0  0  0
 22 28  1  0  0  0  0
 24 28  2  0  0  0  0
 25 26  1  0  0  0  0
  4 29  1  0  0  0  0
  4 30  1  0  0  0  0
  5 31  1  0  0  0  0
  5 32  1  0  0  0  0
  6 33  1  0  0  0  0
  6 34  1  0  0  0  0
  9 35  1  0  0  0  0
 12 36  1  0  0  0  0
 13 37  1  0  0  0  0
 14 38  1  0  0  0  0
 14 39  1  0  0  0  0
 15 40  1  0  0  0  0
 15 41  1  0  0  0  0
 16 42  1  0  0  0  0
 16 43  1  0  0  0  0
 17 44  1  0  0  0  0
 17 45  1  0  0  0  0
 18 46  1  0  0  0  0
 18 47  1  0  0  0  0
 19 48  1  0  0  0  0
 20 49  1  0  0  0  0
 23 50  1  0  0  0  0
M  CHG  2   1  -1  10   1
M  END
$$$$
