Z19_A_486
          05071912473D 1   1.00000     0.00000     0
            
 21 22  0  0  0  0            999 V2000
    2.2217   26.9221    7.5153 O   0  0  0  0  0  0  0  0  0  0  0  0
    4.3614   27.0242    5.8242 N   0  0  0  0  0  0  0  0  0  0  0  0
    3.5477   28.1098    6.1221 N   0  0  0  0  0  0  0  0  0  0  0  0
    0.9937   31.2562    7.0947 N   0  0  0  0  0  0  0  0  0  0  0  0
    1.9499   30.4128    6.6258 N   0  0  0  0  0  0  0  0  0  0  0  0
   -1.7582   30.2196    9.5308 C   0  0  0  0  0  0  0  0  0  0  0  0
   -1.3331   28.8566    9.6330 C   0  0  0  0  0  0  0  0  0  0  0  0
   -1.0412   31.1303    8.6902 C   0  0  0  0  0  0  0  0  0  0  0  0
   -0.1870   28.3934    8.8988 C   0  0  0  0  0  0  0  0  0  0  0  0
    2.5149   27.9860    6.9579 C   0  0  0  0  0  0  0  0  0  0  0  0
    0.0986   30.6590    7.9647 C   0  0  0  0  0  0  0  0  0  0  0  0
    1.7154   29.2380    7.1749 C   0  0  0  0  0  0  0  0  0  0  0  0
    0.5560   29.2876    8.0465 C   0  0  0  0  0  0  0  0  0  0  0  0
    5.0760   27.3087    5.1852 H   0  0  0  0  0  0  0  0  0  0  0  0
    4.7822   26.6825    6.6645 H   0  0  0  0  0  0  0  0  0  0  0  0
    3.7389   28.9978    5.7038 H   0  0  0  0  0  0  0  0  0  0  0  0
    0.9415   32.2205    6.8350 H   0  0  0  0  0  0  0  0  0  0  0  0
   -2.5551   30.5353   10.0459 H   0  0  0  0  0  0  0  0  0  0  0  0
   -1.8368   28.2220   10.2192 H   0  0  0  0  0  0  0  0  0  0  0  0
   -1.3332   32.0835    8.6112 H   0  0  0  0  0  0  0  0  0  0  0  0
    0.0985   27.4385    8.9804 H   0  0  0  0  0  0  0  0  0  0  0  0
  1 10  2  0  0  0  0
  2  3  1  0  0  0  0
  3 10  1  0  0  0  0
  4  5  1  0  0  0  0
  4 11  1  0  0  0  0
  5 12  2  0  0  0  0
  6  7  2  0  0  0  0
  6  8  1  0  0  0  0
  7  9  1  0  0  0  0
  8 11  2  0  0  0  0
  9 13  2  0  0  0  0
 10 12  1  0  0  0  0
 11 13  1  0  0  0  0
 12 13  1  0  0  0  0
  2 14  1  0  0  0  0
  2 15  1  0  0  0  0
  3 16  1  0  0  0  0
  4 17  1  0  0  0  0
  6 18  1  0  0  0  0
  7 19  1  0  0  0  0
  8 20  1  0  0  0  0
  9 21  1  0  0  0  0
M  END
$$$$
