O1Z_A_516
          05071912473D 1   1.00000     0.00000     0
            
 46 49  0  0  0  0            999 V2000
    1.5455   27.6772    7.6090 S   0  0  0  0  0  0  0  0  0  0  0  0
   -1.0138   30.0151    9.6468 O   0  0  0  0  0  0  0  0  0  0  0  0
    0.4079   31.4115    7.6752 N   0  0  0  0  0  0  0  0  0  0  0  0
    1.9353   30.0023    6.5169 N   0  0  0  0  0  0  0  0  0  0  0  0
    3.3205   28.2484    5.6459 N   0  0  0  0  0  0  0  0  0  0  0  0
    6.2357   25.0203    6.0552 C   0  0  0  0  0  0  0  0  0  0  0  0
    5.5437   25.5581    7.3343 C   0  0  0  0  0  0  0  0  0  0  0  0
    5.2963   25.0452    4.8224 C   0  0  0  0  0  0  0  0  0  0  0  0
   -1.3984   22.7487   11.3640 C   0  0  0  0  0  0  0  0  0  0  0  0
   -1.3765   22.7527    9.9179 C   0  0  0  0  0  0  0  0  0  0  0  0
    4.9209   26.9553    7.0886 C   0  0  0  0  0  0  0  0  0  0  0  0
    4.6550   26.4386    4.6016 C   0  0  0  0  0  0  0  0  0  0  0  0
   -1.2223   23.9754   12.1113 C   0  0  0  0  0  0  0  0  0  0  0  0
   -1.1767   23.9855    9.1900 C   0  0  0  0  0  0  0  0  0  0  0  0
   -0.6235   27.6944   11.4074 C   0  0  0  0  0  0  0  0  0  0  0  0
   -0.8367   26.4620   12.1265 C   0  0  0  0  0  0  0  0  0  0  0  0
   -0.7828   26.4736    9.2157 C   0  0  0  0  0  0  0  0  0  0  0  0
    2.3382   28.6991    6.4965 C   0  0  0  0  0  0  0  0  0  0  0  0
    0.6468   29.0253    8.1567 C   0  0  0  0  0  0  0  0  0  0  0  0
    0.9709   30.1877    7.4556 C   0  0  0  0  0  0  0  0  0  0  0  0
   -0.3540   28.8873    9.2706 C   0  0  0  0  0  0  0  0  0  0  0  0
    3.9231   26.9275    5.8804 C   0  0  0  0  0  0  0  0  0  0  0  0
   -0.5886   27.7363    9.9481 C   0  0  0  0  0  0  0  0  0  0  0  0
   -1.0185   25.2260   11.4092 C   0  0  0  0  0  0  0  0  0  0  0  0
   -0.9936   25.2318    9.9151 C   0  0  0  0  0  0  0  0  0  0  0  0
   -0.3002   31.5182    8.3731 H   0  0  0  0  0  0  0  0  0  0  0  0
    0.7036   32.2015    7.1381 H   0  0  0  0  0  0  0  0  0  0  0  0
    3.6215   28.8123    4.8769 H   0  0  0  0  0  0  0  0  0  0  0  0
    6.5261   24.0775    6.2191 H   0  0  0  0  0  0  0  0  0  0  0  0
    7.0365   25.5867    5.8607 H   0  0  0  0  0  0  0  0  0  0  0  0
    6.2206   25.6269    8.0671 H   0  0  0  0  0  0  0  0  0  0  0  0
    4.8214   24.9222    7.6064 H   0  0  0  0  0  0  0  0  0  0  0  0
    4.5680   24.3737    4.9591 H   0  0  0  0  0  0  0  0  0  0  0  0
    5.8255   24.8020    4.0095 H   0  0  0  0  0  0  0  0  0  0  0  0
   -1.5369   21.8878   11.8536 H   0  0  0  0  0  0  0  0  0  0  0  0
   -1.5005   21.8957    9.4176 H   0  0  0  0  0  0  0  0  0  0  0  0
    5.6524   27.6083    6.8924 H   0  0  0  0  0  0  0  0  0  0  0  0
    4.4294   27.2424    7.9108 H   0  0  0  0  0  0  0  0  0  0  0  0
    3.9967   26.3798    3.8512 H   0  0  0  0  0  0  0  0  0  0  0  0
    5.3722   27.0942    4.3653 H   0  0  0  0  0  0  0  0  0  0  0  0
   -1.2412   23.9598   13.1110 H   0  0  0  0  0  0  0  0  0  0  0  0
   -1.1644   23.9809    8.1901 H   0  0  0  0  0  0  0  0  0  0  0  0
   -0.4961   28.5424   11.9219 H   0  0  0  0  0  0  0  0  0  0  0  0
   -0.8584   26.4658   13.1262 H   0  0  0  0  0  0  0  0  0  0  0  0
   -0.7682   26.4782    8.2158 H   0  0  0  0  0  0  0  0  0  0  0  0
    3.1908   26.2800    6.0913 H   0  0  0  0  0  0  0  0  0  0  0  0
  1 18  1  0  0  0  0
  1 19  1  0  0  0  0
  2 21  2  0  0  0  0
  3 20  1  0  0  0  0
  4 18  2  0  0  0  0
  4 20  1  0  0  0  0
  5 18  1  0  0  0  0
  5 22  1  0  0  0  0
  6  7  1  0  0  0  0
  6  8  1  0  0  0  0
  7 11  1  0  0  0  0
  8 12  1  0  0  0  0
  9 10  2  0  0  0  0
  9 13  1  0  0  0  0
 10 14  1  0  0  0  0
 11 22  1  0  0  0  0
 12 22  1  0  0  0  0
 13 24  2  0  0  0  0
 14 25  2  0  0  0  0
 15 16  2  0  0  0  0
 15 23  1  0  0  0  0
 16 24  1  0  0  0  0
 17 23  2  0  0  0  0
 17 25  1  0  0  0  0
 19 20  2  0  0  0  0
 19 21  1  0  0  0  0
 21 23  1  0  0  0  0
 24 25  1  0  0  0  0
  3 26  1  0  0  0  0
  3 27  1  0  0  0  0
  5 28  1  0  0  0  0
  6 29  1  0  0  0  0
  6 30  1  0  0  0  0
  7 31  1  0  0  0  0
  7 32  1  0  0  0  0
  8 33  1  0  0  0  0
  8 34  1  0  0  0  0
  9 35  1  0  0  0  0
 10 36  1  0  0  0  0
 11 37  1  0  0  0  0
 11 38  1  0  0  0  0
 12 39  1  0  0  0  0
 12 40  1  0  0  0  0
 13 41  1  0  0  0  0
 14 42  1  0  0  0  0
 15 43  1  0  0  0  0
 16 44  1  0  0  0  0
 17 45  1  0  0  0  0
 22 46  1  0  0  0  0
M  END
$$$$
