X85_A_923
          05071912473D 1   1.00000     0.00000     0
            
 56 58  0  0  0  0            999 V2000
   -2.6210   27.3153    8.8098 O   0  5  0  0  0  0  0  0  0  0  0  0
   -1.7575   25.4776    9.6218 O   0  0  0  0  0  0  0  0  0  0  0  0
    1.9719   30.3640    6.0392 O   0  0  0  0  0  0  0  0  0  0  0  0
    6.3023   21.2560   11.4857 O   0  0  0  0  0  0  0  0  0  0  0  0
    0.2258   31.0467    7.2869 N   0  0  0  0  0  0  0  0  0  0  0  0
    4.6907   25.7010    4.1954 N   0  0  0  0  0  0  0  0  0  0  0  0
    0.6811   24.9910    9.5392 N   0  0  0  0  0  0  0  0  0  0  0  0
    3.4580   28.3974    7.3553 N   0  0  0  0  0  0  0  0  0  0  0  0
   -1.6504   26.5831    9.0485 N   0  3  0  0  0  0  0  0  0  0  0  0
    4.2594   21.8491    9.9485 N   0  0  0  0  0  0  0  0  0  0  0  0
    6.7045   21.1911    9.9832 C   0  0  0  0  0  0  0  0  0  0  0  0
    5.1040   20.3260   11.8030 C   0  0  0  0  0  0  0  0  0  0  0  0
    5.0394   24.3831    4.6269 C   0  0  0  0  0  0  0  0  0  0  0  0
    1.1915   23.7620    8.9630 C   0  0  0  0  0  0  0  0  0  0  0  0
    4.5798   26.7684    5.1287 C   0  0  0  0  0  0  0  0  0  0  0  0
    4.7035   27.6380    7.5456 C   0  0  0  0  0  0  0  0  0  0  0  0
    5.4998   21.5266    9.0783 C   0  0  0  0  0  0  0  0  0  0  0  0
    3.9003   20.6714   10.8959 C   0  0  0  0  0  0  0  0  0  0  0  0
    3.1070   22.1725    9.1044 C   0  0  0  0  0  0  0  0  0  0  0  0
    2.4060   23.3423    9.7671 C   0  0  0  0  0  0  0  0  0  0  0  0
    5.2787   24.1320    6.0027 C   0  0  0  0  0  0  0  0  0  0  0  0
    5.1685   25.2005    6.9430 C   0  0  0  0  0  0  0  0  0  0  0  0
    2.0548   26.6867    8.4532 C   0  0  0  0  0  0  0  0  0  0  0  0
   -0.2599   28.2894    7.9851 C   0  0  0  0  0  0  0  0  0  0  0  0
    1.1336   30.0879    6.8777 C   0  0  0  0  0  0  0  0  0  0  0  0
    0.7784   26.2205    8.8856 C   0  0  0  0  0  0  0  0  0  0  0  0
    2.1976   27.9543    7.7809 C   0  0  0  0  0  0  0  0  0  0  0  0
    4.8207   26.5154    6.5137 C   0  0  0  0  0  0  0  0  0  0  0  0
   -0.3972   27.0167    8.6488 C   0  0  0  0  0  0  0  0  0  0  0  0
    1.0285   28.7647    7.5511 C   0  0  0  0  0  0  0  0  0  0  0  0
   -0.4633   30.8212    7.9756 H   0  0  0  0  0  0  0  0  0  0  0  0
    0.2582   31.9658    6.8942 H   0  0  0  0  0  0  0  0  0  0  0  0
    0.2434   24.9563   10.4377 H   0  0  0  0  0  0  0  0  0  0  0  0
    3.5136   29.2832    6.8945 H   0  0  0  0  0  0  0  0  0  0  0  0
    7.0281   20.2693    9.7699 H   0  0  0  0  0  0  0  0  0  0  0  0
    7.4371   21.8497    9.8112 H   0  0  0  0  0  0  0  0  0  0  0  0
    4.8398   20.4434   12.7603 H   0  0  0  0  0  0  0  0  0  0  0  0
    5.3734   19.3759   11.6457 H   0  0  0  0  0  0  0  0  0  0  0  0
    5.1144   23.6408    3.9610 H   0  0  0  0  0  0  0  0  0  0  0  0
    1.4513   23.9156    8.0096 H   0  0  0  0  0  0  0  0  0  0  0  0
    0.4915   23.0492    9.0071 H   0  0  0  0  0  0  0  0  0  0  0  0
    4.3355   27.6870    4.8183 H   0  0  0  0  0  0  0  0  0  0  0  0
    4.7080   27.2410    8.4633 H   0  0  0  0  0  0  0  0  0  0  0  0
    5.4827   28.2568    7.4462 H   0  0  0  0  0  0  0  0  0  0  0  0
    5.7220   22.3196    8.5111 H   0  0  0  0  0  0  0  0  0  0  0  0
    5.2980   20.7428    8.4911 H   0  0  0  0  0  0  0  0  0  0  0  0
    3.6587   19.8698   10.3489 H   0  0  0  0  0  0  0  0  0  0  0  0
    3.1216   20.9326   11.4664 H   0  0  0  0  0  0  0  0  0  0  0  0
    2.4901   21.3876    9.0459 H   0  0  0  0  0  0  0  0  0  0  0  0
    3.4112   22.4265    8.1863 H   0  0  0  0  0  0  0  0  0  0  0  0
    2.1153   23.0738   10.6854 H   0  0  0  0  0  0  0  0  0  0  0  0
    3.0405   24.1127    9.8302 H   0  0  0  0  0  0  0  0  0  0  0  0
    5.5229   23.2128    6.3116 H   0  0  0  0  0  0  0  0  0  0  0  0
    5.3369   25.0252    7.9130 H   0  0  0  0  0  0  0  0  0  0  0  0
    2.8651   26.1246    8.6192 H   0  0  0  0  0  0  0  0  0  0  0  0
   -1.0717   28.8507    7.8237 H   0  0  0  0  0  0  0  0  0  0  0  0
  1  9  1  0  0  0  0
  2  9  2  0  0  0  0
  3 25  2  0  0  0  0
  4 11  1  0  0  0  0
  4 12  1  0  0  0  0
  5 25  1  0  0  0  0
  6 13  2  0  0  0  0
  6 15  1  0  0  0  0
  7 14  1  0  0  0  0
  7 26  1  0  0  0  0
  8 16  1  0  0  0  0
  8 27  1  0  0  0  0
  9 29  1  0  0  0  0
 10 17  1  0  0  0  0
 10 18  1  0  0  0  0
 10 19  1  0  0  0  0
 11 17  1  0  0  0  0
 12 18  1  0  0  0  0
 13 21  1  0  0  0  0
 14 20  1  0  0  0  0
 15 28  2  0  0  0  0
 16 28  1  0  0  0  0
 19 20  1  0  0  0  0
 21 22  2  0  0  0  0
 22 28  1  0  0  0  0
 23 26  2  0  0  0  0
 23 27  1  0  0  0  0
 24 29  2  0  0  0  0
 24 30  1  0  0  0  0
 25 30  1  0  0  0  0
 26 29  1  0  0  0  0
 27 30  2  0  0  0  0
  5 31  1  0  0  0  0
  5 32  1  0  0  0  0
  7 33  1  0  0  0  0
  8 34  1  0  0  0  0
 11 35  1  0  0  0  0
 11 36  1  0  0  0  0
 12 37  1  0  0  0  0
 12 38  1  0  0  0  0
 13 39  1  0  0  0  0
 14 40  1  0  0  0  0
 14 41  1  0  0  0  0
 15 42  1  0  0  0  0
 16 43  1  0  0  0  0
 16 44  1  0  0  0  0
 17 45  1  0  0  0  0
 17 46  1  0  0  0  0
 18 47  1  0  0  0  0
 18 48  1  0  0  0  0
 19 49  1  0  0  0  0
 19 50  1  0  0  0  0
 20 51  1  0  0  0  0
 20 52  1  0  0  0  0
 21 53  1  0  0  0  0
 22 54  1  0  0  0  0
 23 55  1  0  0  0  0
 24 56  1  0  0  0  0
M  CHG  2   1  -1   9   1
M  END
$$$$
