07Z_A_436
          05071912473D 1   1.00000     0.00000     0
            
 36 38  0  0  0  0            999 V2000
    1.2407   28.1258    8.1124 S   0  0  0  0  0  0  0  0  0  0  0  0
    7.2125   23.4488    5.6416 O   0  0  0  0  0  0  0  0  0  0  0  0
    6.2167   22.7530    7.6959 O   0  0  0  0  0  0  0  0  0  0  0  0
   -1.6832   30.7134    9.1318 O   0  0  0  0  0  0  0  0  0  0  0  0
    0.1560   31.7132    7.3477 N   0  0  0  0  0  0  0  0  0  0  0  0
   -3.1356   27.0152   10.9007 N   0  0  0  0  0  0  0  0  0  0  0  0
    1.8182   30.2730    6.7691 N   0  0  0  0  0  0  0  0  0  0  0  0
    3.3944   28.6123    6.4013 N   0  0  0  0  0  0  0  0  0  0  0  0
   -2.2370   26.3090   11.6777 C   0  0  0  0  0  0  0  0  0  0  0  0
   -2.7624   28.0613   10.0649 C   0  0  0  0  0  0  0  0  0  0  0  0
   -0.8690   26.6470   11.6438 C   0  0  0  0  0  0  0  0  0  0  0  0
   -0.4479   27.7150   10.8007 C   0  0  0  0  0  0  0  0  0  0  0  0
    4.9838   27.0723    5.4775 C   0  0  0  0  0  0  0  0  0  0  0  0
    3.8766   26.4901    7.6115 C   0  0  0  0  0  0  0  0  0  0  0  0
    5.7159   25.8686    5.5321 C   0  0  0  0  0  0  0  0  0  0  0  0
    4.6120   25.2794    7.6633 C   0  0  0  0  0  0  0  0  0  0  0  0
    2.2404   29.0313    7.0131 C   0  0  0  0  0  0  0  0  0  0  0  0
    6.3397   23.6942    6.6522 C   0  0  0  0  0  0  0  0  0  0  0  0
    0.2467   29.5173    8.2371 C   0  0  0  0  0  0  0  0  0  0  0  0
    0.7085   30.5595    7.4409 C   0  0  0  0  0  0  0  0  0  0  0  0
   -0.9614   29.5718    9.1133 C   0  0  0  0  0  0  0  0  0  0  0  0
    4.0492   27.4137    6.5109 C   0  0  0  0  0  0  0  0  0  0  0  0
    5.5454   24.9539    6.6237 C   0  0  0  0  0  0  0  0  0  0  0  0
   -1.3965   28.4418    9.9875 C   0  0  0  0  0  0  0  0  0  0  0  0
    7.3106   24.1068    4.8949 H   0  0  0  0  0  0  0  0  0  0  0  0
   -0.6792   31.9105    7.8610 H   0  0  0  0  0  0  0  0  0  0  0  0
    0.5605   32.4154    6.7617 H   0  0  0  0  0  0  0  0  0  0  0  0
    3.8189   29.2773    5.7869 H   0  0  0  0  0  0  0  0  0  0  0  0
   -2.5557   25.5620   12.2611 H   0  0  0  0  0  0  0  0  0  0  0  0
   -3.4508   28.5424    9.5221 H   0  0  0  0  0  0  0  0  0  0  0  0
   -0.2066   26.1464   12.2012 H   0  0  0  0  0  0  0  0  0  0  0  0
    0.5196   27.9660   10.7708 H   0  0  0  0  0  0  0  0  0  0  0  0
    5.1178   27.6965    4.7079 H   0  0  0  0  0  0  0  0  0  0  0  0
    3.2313   26.7084    8.3436 H   0  0  0  0  0  0  0  0  0  0  0  0
    6.3620   25.6499    4.8008 H   0  0  0  0  0  0  0  0  0  0  0  0
    4.4794   24.6491    8.4282 H   0  0  0  0  0  0  0  0  0  0  0  0
  1 17  1  0  0  0  0
  1 19  1  0  0  0  0
  2 18  1  0  0  0  0
  3 18  2  0  0  0  0
  4 21  2  0  0  0  0
  5 20  1  0  0  0  0
  6  9  2  0  0  0  0
  6 10  1  0  0  0  0
  7 17  2  0  0  0  0
  7 20  1  0  0  0  0
  8 17  1  0  0  0  0
  8 22  1  0  0  0  0
  9 11  1  0  0  0  0
 10 24  2  0  0  0  0
 11 12  2  0  0  0  0
 12 24  1  0  0  0  0
 13 15  1  0  0  0  0
 13 22  2  0  0  0  0
 14 16  2  0  0  0  0
 14 22  1  0  0  0  0
 15 23  2  0  0  0  0
 16 23  1  0  0  0  0
 18 23  1  0  0  0  0
 19 20  2  0  0  0  0
 19 21  1  0  0  0  0
 21 24  1  0  0  0  0
  2 25  1  0  0  0  0
  5 26  1  0  0  0  0
  5 27  1  0  0  0  0
  8 28  1  0  0  0  0
  9 29  1  0  0  0  0
 10 30  1  0  0  0  0
 11 31  1  0  0  0  0
 12 32  1  0  0  0  0
 13 33  1  0  0  0  0
 14 34  1  0  0  0  0
 15 35  1  0  0  0  0
 16 36  1  0  0  0  0
M  END
$$$$
