18Z_A_478
          05071912473D 1   1.00000     0.00000     0
            
 55 57  0  0  0  0            999 V2000
   -3.3202   27.9744    8.2071 O   0  5  0  0  0  0  0  0  0  0  0  0
   -2.6217   26.3504    9.6133 O   0  0  0  0  0  0  0  0  0  0  0  0
    1.8281   30.4704    6.1273 O   0  0  0  0  0  0  0  0  0  0  0  0
    4.7008   23.1263    4.1695 N   0  0  0  0  0  0  0  0  0  0  0  0
    0.1708   31.3760    7.3227 N   0  0  0  0  0  0  0  0  0  0  0  0
   -0.8785   22.5984   14.7093 N   0  0  0  0  0  0  0  0  0  0  0  0
   -0.4461   25.2584    8.8522 N   0  0  0  0  0  0  0  0  0  0  0  0
    4.4995   23.8869    6.2765 N   0  0  0  0  0  0  0  0  0  0  0  0
    4.4776   25.3612    4.3546 N   0  0  0  0  0  0  0  0  0  0  0  0
    2.8449   28.2541    7.1035 N   0  0  0  0  0  0  0  0  0  0  0  0
   -2.3331   27.2616    8.7066 N   0  3  0  0  0  0  0  0  0  0  0  0
   -0.3898   23.4162   11.9949 N   0  0  0  0  0  0  0  0  0  0  0  0
   -0.3642   21.6493   13.7344 C   0  0  0  0  0  0  0  0  0  0  0  0
   -1.7549   23.5462   14.0415 C   0  0  0  0  0  0  0  0  0  0  0  0
    0.2813   24.5970    9.9635 C   0  0  0  0  0  0  0  0  0  0  0  0
    4.3424   24.9858    7.0811 C   0  0  0  0  0  0  0  0  0  0  0  0
    4.3215   26.4200    5.2091 C   0  0  0  0  0  0  0  0  0  0  0  0
    4.0594   27.4800    7.5155 C   0  0  0  0  0  0  0  0  0  0  0  0
    0.4409   22.4007   12.6516 C   0  0  0  0  0  0  0  0  0  0  0  0
   -0.9471   24.3304   12.9973 C   0  0  0  0  0  0  0  0  0  0  0  0
   -0.6119   23.5059   10.5708 C   0  0  0  0  0  0  0  0  0  0  0  0
    1.2202   26.7023    7.9955 C   0  0  0  0  0  0  0  0  0  0  0  0
   -0.7294   28.7534    7.8287 C   0  0  0  0  0  0  0  0  0  0  0  0
    4.5578   24.1295    4.9367 C   0  0  0  0  0  0  0  0  0  0  0  0
    0.9122   30.2971    6.9227 C   0  0  0  0  0  0  0  0  0  0  0  0
   -0.1211   26.4315    8.4119 C   0  0  0  0  0  0  0  0  0  0  0  0
    1.6131   28.0009    7.4890 C   0  0  0  0  0  0  0  0  0  0  0  0
   -1.1103   27.4689    8.3335 C   0  0  0  0  0  0  0  0  0  0  0  0
    4.2473   26.2963    6.5989 C   0  0  0  0  0  0  0  0  0  0  0  0
    0.6152   29.0341    7.4043 C   0  0  0  0  0  0  0  0  0  0  0  0
    4.7485   23.2570    3.1792 H   0  0  0  0  0  0  0  0  0  0  0  0
    4.7656   22.2064    4.5562 H   0  0  0  0  0  0  0  0  0  0  0  0
   -0.5805   31.2537    7.9712 H   0  0  0  0  0  0  0  0  0  0  0  0
    0.3805   32.2866    6.9665 H   0  0  0  0  0  0  0  0  0  0  0  0
   -0.1164   23.0889   15.1321 H   0  0  0  0  0  0  0  0  0  0  0  0
   -1.2154   24.7806    8.4280 H   0  0  0  0  0  0  0  0  0  0  0  0
    2.9820   29.0272    6.4842 H   0  0  0  0  0  0  0  0  0  0  0  0
   -1.1277   21.1663   13.3058 H   0  0  0  0  0  0  0  0  0  0  0  0
    0.2312   20.9903   14.1941 H   0  0  0  0  0  0  0  0  0  0  0  0
   -2.1367   24.1801   14.7142 H   0  0  0  0  0  0  0  0  0  0  0  0
   -2.4978   23.0533   13.5887 H   0  0  0  0  0  0  0  0  0  0  0  0
    0.5075   25.2731   10.6647 H   0  0  0  0  0  0  0  0  0  0  0  0
    1.1227   24.1847    9.6142 H   0  0  0  0  0  0  0  0  0  0  0  0
    4.2929   24.8427    8.0696 H   0  0  0  0  0  0  0  0  0  0  0  0
    4.2568   27.3367    4.8148 H   0  0  0  0  0  0  0  0  0  0  0  0
    3.9444   27.1573    8.4550 H   0  0  0  0  0  0  0  0  0  0  0  0
    4.8639   28.0717    7.4624 H   0  0  0  0  0  0  0  0  0  0  0  0
    1.2275   22.8467   13.0785 H   0  0  0  0  0  0  0  0  0  0  0  0
    0.7602   21.7455   11.9669 H   0  0  0  0  0  0  0  0  0  0  0  0
   -1.5461   24.9911   12.5447 H   0  0  0  0  0  0  0  0  0  0  0  0
   -0.2006   24.8150   13.4533 H   0  0  0  0  0  0  0  0  0  0  0  0
   -1.5711   23.7307   10.3994 H   0  0  0  0  0  0  0  0  0  0  0  0
   -0.3946   22.6268   10.1465 H   0  0  0  0  0  0  0  0  0  0  0  0
    1.9047   25.9758    8.0557 H   0  0  0  0  0  0  0  0  0  0  0  0
   -1.4182   29.4759    7.7696 H   0  0  0  0  0  0  0  0  0  0  0  0
  1 11  1  0  0  0  0
  2 11  2  0  0  0  0
  3 25  2  0  0  0  0
  4 24  1  0  0  0  0
  5 25  1  0  0  0  0
  6 13  1  0  0  0  0
  6 14  1  0  0  0  0
  7 15  1  0  0  0  0
  7 26  1  0  0  0  0
  8 16  1  0  0  0  0
  8 24  2  0  0  0  0
  9 17  2  0  0  0  0
  9 24  1  0  0  0  0
 10 18  1  0  0  0  0
 10 27  1  0  0  0  0
 11 28  1  0  0  0  0
 12 19  1  0  0  0  0
 12 20  1  0  0  0  0
 12 21  1  0  0  0  0
 13 19  1  0  0  0  0
 14 20  1  0  0  0  0
 15 21  1  0  0  0  0
 16 29  2  0  0  0  0
 17 29  1  0  0  0  0
 18 29  1  0  0  0  0
 22 26  2  0  0  0  0
 22 27  1  0  0  0  0
 23 28  2  0  0  0  0
 23 30  1  0  0  0  0
 25 30  1  0  0  0  0
 26 28  1  0  0  0  0
 27 30  2  0  0  0  0
  4 31  1  0  0  0  0
  4 32  1  0  0  0  0
  5 33  1  0  0  0  0
  5 34  1  0  0  0  0
  6 35  1  0  0  0  0
  7 36  1  0  0  0  0
 10 37  1  0  0  0  0
 13 38  1  0  0  0  0
 13 39  1  0  0  0  0
 14 40  1  0  0  0  0
 14 41  1  0  0  0  0
 15 42  1  0  0  0  0
 15 43  1  0  0  0  0
 16 44  1  0  0  0  0
 17 45  1  0  0  0  0
 18 46  1  0  0  0  0
 18 47  1  0  0  0  0
 19 48  1  0  0  0  0
 19 49  1  0  0  0  0
 20 50  1  0  0  0  0
 20 51  1  0  0  0  0
 21 52  1  0  0  0  0
 21 53  1  0  0  0  0
 22 54  1  0  0  0  0
 23 55  1  0  0  0  0
M  CHG  2   1  -1  11   1
M  END
$$$$
