20Z_A_496
          05071912473D 1   1.00000     0.00000     0
            
 45 48  0  0  0  0            999 V2000
    0.8931   28.1922    7.9343 S   0  0  0  0  0  0  0  0  0  0  0  0
    6.5486   23.8566    7.3502 S   0  0  0  0  0  0  0  0  0  0  0  0
    7.6248   24.3273    8.1965 O   0  0  0  0  0  0  0  0  0  0  0  0
    7.0879   23.3541    6.0948 O   0  0  0  0  0  0  0  0  0  0  0  0
   -1.6645   30.8628    9.1785 O   0  0  0  0  0  0  0  0  0  0  0  0
    5.7231   22.6294    8.1593 N   0  0  0  0  0  0  0  0  0  0  0  0
    0.2360   31.8925    7.5461 N   0  0  0  0  0  0  0  0  0  0  0  0
    1.7646   30.3281    6.7766 N   0  0  0  0  0  0  0  0  0  0  0  0
    3.0117   28.5037    6.2620 N   0  0  0  0  0  0  0  0  0  0  0  0
   -2.5954   24.3766   12.4570 C   0  0  0  0  0  0  0  0  0  0  0  0
   -1.2054   24.6366   12.5943 C   0  0  0  0  0  0  0  0  0  0  0  0
    5.7063   26.0995    5.9486 C   0  0  0  0  0  0  0  0  0  0  0  0
    4.3453   25.4708    7.9054 C   0  0  0  0  0  0  0  0  0  0  0  0
   -3.4129   25.2483   11.6785 C   0  0  0  0  0  0  0  0  0  0  0  0
   -0.6228   25.7673   11.9527 C   0  0  0  0  0  0  0  0  0  0  0  0
    4.8585   27.2015    5.7059 C   0  0  0  0  0  0  0  0  0  0  0  0
    3.4913   26.5758    7.6654 C   0  0  0  0  0  0  0  0  0  0  0  0
   -3.6467   27.2793   10.2358 C   0  0  0  0  0  0  0  0  0  0  0  0
   -3.0667   28.4048    9.5871 C   0  0  0  0  0  0  0  0  0  0  0  0
   -0.8545   27.7942   10.5082 C   0  0  0  0  0  0  0  0  0  0  0  0
    2.0029   29.0421    6.9046 C   0  0  0  0  0  0  0  0  0  0  0  0
    5.4554   25.2327    7.0456 C   0  0  0  0  0  0  0  0  0  0  0  0
    0.0239   29.6556    8.2365 C   0  0  0  0  0  0  0  0  0  0  0  0
    0.6484   30.6891    7.5236 C   0  0  0  0  0  0  0  0  0  0  0  0
   -1.1169   29.7759    9.0581 C   0  0  0  0  0  0  0  0  0  0  0  0
    3.7408   27.4644    6.5549 C   0  0  0  0  0  0  0  0  0  0  0  0
   -2.8477   26.3917   11.0247 C   0  0  0  0  0  0  0  0  0  0  0  0
   -1.6651   28.6756    9.7118 C   0  0  0  0  0  0  0  0  0  0  0  0
   -1.4228   26.6549   11.1647 C   0  0  0  0  0  0  0  0  0  0  0  0
    4.9761   22.2951    7.5847 H   0  0  0  0  0  0  0  0  0  0  0  0
    6.3531   21.8784    8.3575 H   0  0  0  0  0  0  0  0  0  0  0  0
   -0.5682   32.1354    8.0885 H   0  0  0  0  0  0  0  0  0  0  0  0
    0.7162   32.5954    7.0215 H   0  0  0  0  0  0  0  0  0  0  0  0
    3.2613   28.9651    5.4106 H   0  0  0  0  0  0  0  0  0  0  0  0
   -3.0013   23.5811   12.9069 H   0  0  0  0  0  0  0  0  0  0  0  0
   -0.6350   24.0248   13.1424 H   0  0  0  0  0  0  0  0  0  0  0  0
    6.4861   25.9285    5.3463 H   0  0  0  0  0  0  0  0  0  0  0  0
    4.1689   24.8595    8.6768 H   0  0  0  0  0  0  0  0  0  0  0  0
   -4.3907   25.0597   11.5878 H   0  0  0  0  0  0  0  0  0  0  0  0
    0.3564   25.9429   12.0540 H   0  0  0  0  0  0  0  0  0  0  0  0
    5.0426   27.8052    4.9303 H   0  0  0  0  0  0  0  0  0  0  0  0
    2.7112   26.7412    8.2687 H   0  0  0  0  0  0  0  0  0  0  0  0
   -4.6268   27.1057   10.1391 H   0  0  0  0  0  0  0  0  0  0  0  0
   -3.6421   29.0122    9.0394 H   0  0  0  0  0  0  0  0  0  0  0  0
    0.1232   27.9800   10.6054 H   0  0  0  0  0  0  0  0  0  0  0  0
  1 21  1  0  0  0  0
  1 23  1  0  0  0  0
  2  3  2  0  0  0  0
  2  4  2  0  0  0  0
  2  6  1  0  0  0  0
  2 22  1  0  0  0  0
  5 25  2  0  0  0  0
  7 24  1  0  0  0  0
  8 21  2  0  0  0  0
  8 24  1  0  0  0  0
  9 21  1  0  0  0  0
  9 26  1  0  0  0  0
 10 11  2  0  0  0  0
 10 14  1  0  0  0  0
 11 15  1  0  0  0  0
 12 16  1  0  0  0  0
 12 22  2  0  0  0  0
 13 17  2  0  0  0  0
 13 22  1  0  0  0  0
 14 27  2  0  0  0  0
 15 29  2  0  0  0  0
 16 26  2  0  0  0  0
 17 26  1  0  0  0  0
 18 19  2  0  0  0  0
 18 27  1  0  0  0  0
 19 28  1  0  0  0  0
 20 28  2  0  0  0  0
 20 29  1  0  0  0  0
 23 24  2  0  0  0  0
 23 25  1  0  0  0  0
 25 28  1  0  0  0  0
 27 29  1  0  0  0  0
  6 30  1  0  0  0  0
  6 31  1  0  0  0  0
  7 32  1  0  0  0  0
  7 33  1  0  0  0  0
  9 34  1  0  0  0  0
 10 35  1  0  0  0  0
 11 36  1  0  0  0  0
 12 37  1  0  0  0  0
 13 38  1  0  0  0  0
 14 39  1  0  0  0  0
 15 40  1  0  0  0  0
 16 41  1  0  0  0  0
 17 42  1  0  0  0  0
 18 43  1  0  0  0  0
 19 44  1  0  0  0  0
 20 45  1  0  0  0  0
M  END
$$$$
