21Z_A_424
          05071912473D 1   1.00000     0.00000     0
            
 39 41  0  0  0  0            999 V2000
    0.9709   28.1366    7.9130 S   0  0  0  0  0  0  0  0  0  0  0  0
    5.7391   24.5893    4.2041 S   0  0  0  0  0  0  0  0  0  0  0  0
    7.1093   24.3244    4.6213 O   0  0  0  0  0  0  0  0  0  0  0  0
    5.0862   23.3409    3.8158 O   0  0  0  0  0  0  0  0  0  0  0  0
   -1.6768   30.7823    8.9095 O   0  0  0  0  0  0  0  0  0  0  0  0
    5.7528   25.6840    2.9230 N   0  0  0  0  0  0  0  0  0  0  0  0
    0.3761   31.8386    7.5128 N   0  0  0  0  0  0  0  0  0  0  0  0
    1.9223   30.2638    6.7846 N   0  0  0  0  0  0  0  0  0  0  0  0
    3.1549   28.4060    6.3621 N   0  0  0  0  0  0  0  0  0  0  0  0
   -2.3467   26.6675   11.5820 C   0  0  0  0  0  0  0  0  0  0  0  0
   -1.0150   27.1423   11.6742 C   0  0  0  0  0  0  0  0  0  0  0  0
   -3.2369   27.2212   10.6231 C   0  0  0  0  0  0  0  0  0  0  0  0
    4.0105   25.1335    7.8835 C   0  0  0  0  0  0  0  0  0  0  0  0
    4.7070   24.5592    6.7816 C   0  0  0  0  0  0  0  0  0  0  0  0
    3.4707   26.4493    7.7669 C   0  0  0  0  0  0  0  0  0  0  0  0
   -0.5633   28.1746   10.8047 C   0  0  0  0  0  0  0  0  0  0  0  0
   -2.7910   28.2535    9.7483 C   0  0  0  0  0  0  0  0  0  0  0  0
    4.3227   26.6018    5.4618 C   0  0  0  0  0  0  0  0  0  0  0  0
    2.1349   28.9676    6.9300 C   0  0  0  0  0  0  0  0  0  0  0  0
    4.8609   25.3001    5.5790 C   0  0  0  0  0  0  0  0  0  0  0  0
    0.1236   29.6071    8.1815 C   0  0  0  0  0  0  0  0  0  0  0  0
    0.7813   30.6350    7.4916 C   0  0  0  0  0  0  0  0  0  0  0  0
   -1.0289   29.7472    8.9674 C   0  0  0  0  0  0  0  0  0  0  0  0
    3.6209   27.1978    6.5410 C   0  0  0  0  0  0  0  0  0  0  0  0
   -1.4504   28.7399    9.8286 C   0  0  0  0  0  0  0  0  0  0  0  0
    4.8139   25.8692    2.6327 H   0  0  0  0  0  0  0  0  0  0  0  0
    6.1849   26.5364    3.2175 H   0  0  0  0  0  0  0  0  0  0  0  0
   -0.4463   32.0803    8.0279 H   0  0  0  0  0  0  0  0  0  0  0  0
    0.8794   32.5445    7.0144 H   0  0  0  0  0  0  0  0  0  0  0  0
    3.6499   28.9698    5.7010 H   0  0  0  0  0  0  0  0  0  0  0  0
   -2.6607   25.9410   12.1933 H   0  0  0  0  0  0  0  0  0  0  0  0
   -0.3914   26.7515   12.3513 H   0  0  0  0  0  0  0  0  0  0  0  0
   -4.1771   26.8861   10.5621 H   0  0  0  0  0  0  0  0  0  0  0  0
    3.9006   24.6179    8.7333 H   0  0  0  0  0  0  0  0  0  0  0  0
    5.0867   23.6369    6.8543 H   0  0  0  0  0  0  0  0  0  0  0  0
    2.9846   26.8563    8.5402 H   0  0  0  0  0  0  0  0  0  0  0  0
    0.3771   28.5076   10.8744 H   0  0  0  0  0  0  0  0  0  0  0  0
   -3.4203   28.6400    9.0741 H   0  0  0  0  0  0  0  0  0  0  0  0
    4.4381   27.1089    4.6077 H   0  0  0  0  0  0  0  0  0  0  0  0
  1 19  1  0  0  0  0
  1 21  1  0  0  0  0
  2  3  2  0  0  0  0
  2  4  2  0  0  0  0
  2  6  1  0  0  0  0
  2 20  1  0  0  0  0
  5 23  2  0  0  0  0
  7 22  1  0  0  0  0
  8 19  2  0  0  0  0
  8 22  1  0  0  0  0
  9 19  1  0  0  0  0
  9 24  1  0  0  0  0
 10 11  2  0  0  0  0
 10 12  1  0  0  0  0
 11 16  1  0  0  0  0
 12 17  2  0  0  0  0
 13 14  2  0  0  0  0
 13 15  1  0  0  0  0
 14 20  1  0  0  0  0
 15 24  2  0  0  0  0
 16 25  2  0  0  0  0
 17 25  1  0  0  0  0
 18 20  2  0  0  0  0
 18 24  1  0  0  0  0
 21 22  2  0  0  0  0
 21 23  1  0  0  0  0
 23 25  1  0  0  0  0
  6 26  1  0  0  0  0
  6 27  1  0  0  0  0
  7 28  1  0  0  0  0
  7 29  1  0  0  0  0
  9 30  1  0  0  0  0
 10 31  1  0  0  0  0
 11 32  1  0  0  0  0
 12 33  1  0  0  0  0
 13 34  1  0  0  0  0
 14 35  1  0  0  0  0
 15 36  1  0  0  0  0
 16 37  1  0  0  0  0
 17 38  1  0  0  0  0
 18 39  1  0  0  0  0
M  END
$$$$
