22Z_A_781
          05071912473D 1   1.00000     0.00000     0
            
 52 53  0  0  0  0            999 V2000
   -2.2930   26.6881   10.0531 O   0  5  0  0  0  0  0  0  0  0  0  0
   -3.0938   27.9555    8.3495 O   0  0  0  0  0  0  0  0  0  0  0  0
    1.9191   30.4566    6.0648 O   0  0  0  0  0  0  0  0  0  0  0  0
    0.3422   31.4212    7.3140 N   0  0  0  0  0  0  0  0  0  0  0  0
    4.7326   25.7452    4.1814 N   0  0  0  0  0  0  0  0  0  0  0  0
   -0.1585   25.4377    9.2004 N   0  0  0  0  0  0  0  0  0  0  0  0
    3.0314   28.3027    7.1630 N   0  0  0  0  0  0  0  0  0  0  0  0
   -2.0663   27.4069    8.9699 N   0  3  0  0  0  0  0  0  0  0  0  0
    3.6166   19.9061    8.2603 C   0  0  0  0  0  0  0  0  0  0  0  0
    4.9453   24.4499    4.6125 C   0  0  0  0  0  0  0  0  0  0  0  0
   -0.5984   24.3049    8.3657 C   0  0  0  0  0  0  0  0  0  0  0  0
    4.5107   26.7109    5.1393 C   0  0  0  0  0  0  0  0  0  0  0  0
    4.2390   27.5163    7.5386 C   0  0  0  0  0  0  0  0  0  0  0  0
    3.4454   21.4196    8.1793 C   0  0  0  0  0  0  0  0  0  0  0  0
    0.0836   23.0187    8.8451 C   0  0  0  0  0  0  0  0  0  0  0  0
    4.9445   24.0776    5.9708 C   0  0  0  0  0  0  0  0  0  0  0  0
    2.2745   21.8434    9.0604 C   0  0  0  0  0  0  0  0  0  0  0  0
    1.5554   23.0228    8.4237 C   0  0  0  0  0  0  0  0  0  0  0  0
    4.7122   25.0905    6.9352 C   0  0  0  0  0  0  0  0  0  0  0  0
    1.4612   26.8047    8.2009 C   0  0  0  0  0  0  0  0  0  0  0  0
   -0.5161   28.8345    7.9568 C   0  0  0  0  0  0  0  0  0  0  0  0
    1.0654   30.3245    6.9147 C   0  0  0  0  0  0  0  0  0  0  0  0
    0.1317   26.5666    8.6710 C   0  0  0  0  0  0  0  0  0  0  0  0
    1.8195   28.0689    7.5992 C   0  0  0  0  0  0  0  0  0  0  0  0
   -0.8670   27.5901    8.5504 C   0  0  0  0  0  0  0  0  0  0  0  0
    4.4916   26.4332    6.5237 C   0  0  0  0  0  0  0  0  0  0  0  0
    0.8038   29.0904    7.4788 C   0  0  0  0  0  0  0  0  0  0  0  0
   -0.3651   31.3257    8.0144 H   0  0  0  0  0  0  0  0  0  0  0  0
    0.5228   32.3154    6.9044 H   0  0  0  0  0  0  0  0  0  0  0  0
   -0.0861   25.3230   10.1912 H   0  0  0  0  0  0  0  0  0  0  0  0
    3.1557   29.0669    6.5301 H   0  0  0  0  0  0  0  0  0  0  0  0
    4.3838   19.6261    7.6833 H   0  0  0  0  0  0  0  0  0  0  0  0
    3.7978   19.6413    9.2075 H   0  0  0  0  0  0  0  0  0  0  0  0
    2.7804   19.4587    7.9432 H   0  0  0  0  0  0  0  0  0  0  0  0
    5.1080   23.7414    3.9258 H   0  0  0  0  0  0  0  0  0  0  0  0
   -0.3506   24.4777    7.4125 H   0  0  0  0  0  0  0  0  0  0  0  0
   -1.5905   24.2028    8.4390 H   0  0  0  0  0  0  0  0  0  0  0  0
    4.3559   27.6524    4.8399 H   0  0  0  0  0  0  0  0  0  0  0  0
    4.0960   27.1004    8.4366 H   0  0  0  0  0  0  0  0  0  0  0  0
    5.0313   28.1253    7.5756 H   0  0  0  0  0  0  0  0  0  0  0  0
    3.2639   21.6850    7.2324 H   0  0  0  0  0  0  0  0  0  0  0  0
    4.2813   21.8676    8.4966 H   0  0  0  0  0  0  0  0  0  0  0  0
   -0.3755   22.2285    8.4392 H   0  0  0  0  0  0  0  0  0  0  0  0
    0.0240   22.9632    9.8418 H   0  0  0  0  0  0  0  0  0  0  0  0
    5.1026   23.1294    6.2462 H   0  0  0  0  0  0  0  0  0  0  0  0
    2.6159   22.1094    9.9619 H   0  0  0  0  0  0  0  0  0  0  0  0
    1.6376   21.0786    9.1575 H   0  0  0  0  0  0  0  0  0  0  0  0
    1.9845   23.8749    8.7234 H   0  0  0  0  0  0  0  0  0  0  0  0
    1.6162   22.9511    7.4281 H   0  0  0  0  0  0  0  0  0  0  0  0
    4.7035   24.8597    7.9082 H   0  0  0  0  0  0  0  0  0  0  0  0
    2.1519   26.0870    8.2896 H   0  0  0  0  0  0  0  0  0  0  0  0
   -1.2118   29.5478    7.8726 H   0  0  0  0  0  0  0  0  0  0  0  0
  1  8  1  0  0  0  0
  2  8  2  0  0  0  0
  3 22  2  0  0  0  0
  4 22  1  0  0  0  0
  5 10  2  0  0  0  0
  5 12  1  0  0  0  0
  6 11  1  0  0  0  0
  6 23  1  0  0  0  0
  7 13  1  0  0  0  0
  7 24  1  0  0  0  0
  8 25  1  0  0  0  0
  9 14  1  0  0  0  0
 10 16  1  0  0  0  0
 11 15  1  0  0  0  0
 12 26  2  0  0  0  0
 13 26  1  0  0  0  0
 14 17  1  0  0  0  0
 15 18  1  0  0  0  0
 16 19  2  0  0  0  0
 17 18  1  0  0  0  0
 19 26  1  0  0  0  0
 20 23  2  0  0  0  0
 20 24  1  0  0  0  0
 21 25  2  0  0  0  0
 21 27  1  0  0  0  0
 22 27  1  0  0  0  0
 23 25  1  0  0  0  0
 24 27  2  0  0  0  0
  4 28  1  0  0  0  0
  4 29  1  0  0  0  0
  6 30  1  0  0  0  0
  7 31  1  0  0  0  0
  9 32  1  0  0  0  0
  9 33  1  0  0  0  0
  9 34  1  0  0  0  0
 10 35  1  0  0  0  0
 11 36  1  0  0  0  0
 11 37  1  0  0  0  0
 12 38  1  0  0  0  0
 13 39  1  0  0  0  0
 13 40  1  0  0  0  0
 14 41  1  0  0  0  0
 14 42  1  0  0  0  0
 15 43  1  0  0  0  0
 15 44  1  0  0  0  0
 16 45  1  0  0  0  0
 17 46  1  0  0  0  0
 17 47  1  0  0  0  0
 18 48  1  0  0  0  0
 18 49  1  0  0  0  0
 19 50  1  0  0  0  0
 20 51  1  0  0  0  0
 21 52  1  0  0  0  0
M  CHG  2   1  -1   8   1
M  END
$$$$
