25Z_A_529
          05071912473D 1   1.00000     0.00000     0
            
 37 39  0  0  0  0            999 V2000
    1.7698   27.6904    7.7949 S   0  0  0  0  0  0  0  0  0  0  0  0
   -0.5565   23.8507    8.0265 F   0  0  0  0  0  0  0  0  0  0  0  0
   -2.1738   23.1859    9.4143 F   0  0  0  0  0  0  0  0  0  0  0  0
   -0.0279   22.8589    9.9794 F   0  0  0  0  0  0  0  0  0  0  0  0
   -1.0762   29.8597    9.5993 O   0  0  0  0  0  0  0  0  0  0  0  0
    0.3098   31.2889    7.6222 N   0  0  0  0  0  0  0  0  0  0  0  0
    2.0298   29.9800    6.6378 N   0  0  0  0  0  0  0  0  0  0  0  0
    3.6065   28.3868    5.9232 N   0  0  0  0  0  0  0  0  0  0  0  0
    6.1657   24.8831    5.9385 C   0  0  0  0  0  0  0  0  0  0  0  0
    5.5464   25.2697    7.1781 C   0  0  0  0  0  0  0  0  0  0  0  0
    5.9373   25.6468    4.7428 C   0  0  0  0  0  0  0  0  0  0  0  0
   -1.1397   26.3656   12.1450 C   0  0  0  0  0  0  0  0  0  0  0  0
    4.6877   26.4318    7.2170 C   0  0  0  0  0  0  0  0  0  0  0  0
    5.0801   26.8075    4.7728 C   0  0  0  0  0  0  0  0  0  0  0  0
   -0.8821   27.5841   11.4264 C   0  0  0  0  0  0  0  0  0  0  0  0
   -1.1469   25.1019   11.4581 C   0  0  0  0  0  0  0  0  0  0  0  0
   -0.6369   26.2643    9.3063 C   0  0  0  0  0  0  0  0  0  0  0  0
    2.5568   28.7248    6.6891 C   0  0  0  0  0  0  0  0  0  0  0  0
    0.7117   28.9489    8.2221 C   0  0  0  0  0  0  0  0  0  0  0  0
    0.9887   30.1133    7.4955 C   0  0  0  0  0  0  0  0  0  0  0  0
   -0.3678   28.7587    9.2824 C   0  0  0  0  0  0  0  0  0  0  0  0
    4.4300   27.2383    5.9980 C   0  0  0  0  0  0  0  0  0  0  0  0
   -0.6206   27.5696    9.9793 C   0  0  0  0  0  0  0  0  0  0  0  0
   -0.8957   25.0135   10.0190 C   0  0  0  0  0  0  0  0  0  0  0  0
   -0.9127   23.7370    9.3660 C   0  0  0  0  0  0  0  0  0  0  0  0
   -0.4545   31.3583    8.2632 H   0  0  0  0  0  0  0  0  0  0  0  0
    0.5763   32.0817    7.0740 H   0  0  0  0  0  0  0  0  0  0  0  0
    3.8385   29.0367    5.1995 H   0  0  0  0  0  0  0  0  0  0  0  0
    6.7586   24.0783    5.9087 H   0  0  0  0  0  0  0  0  0  0  0  0
    5.7092   24.7372    8.0087 H   0  0  0  0  0  0  0  0  0  0  0  0
    6.3741   25.3727    3.8860 H   0  0  0  0  0  0  0  0  0  0  0  0
   -1.3151   26.3970   13.1290 H   0  0  0  0  0  0  0  0  0  0  0  0
    4.2596   26.6972    8.0809 H   0  0  0  0  0  0  0  0  0  0  0  0
    4.9306   27.3267    3.9313 H   0  0  0  0  0  0  0  0  0  0  0  0
   -0.8808   28.4548   11.9182 H   0  0  0  0  0  0  0  0  0  0  0  0
   -1.3274   24.2653   11.9753 H   0  0  0  0  0  0  0  0  0  0  0  0
   -0.4643   26.2293    8.3219 H   0  0  0  0  0  0  0  0  0  0  0  0
  1 18  1  0  0  0  0
  1 19  1  0  0  0  0
  2 25  1  0  0  0  0
  3 25  1  0  0  0  0
  4 25  1  0  0  0  0
  5 21  2  0  0  0  0
  6 20  1  0  0  0  0
  7 18  2  0  0  0  0
  7 20  1  0  0  0  0
  8 18  1  0  0  0  0
  8 22  1  0  0  0  0
  9 10  2  0  0  0  0
  9 11  1  0  0  0  0
 10 13  1  0  0  0  0
 11 14  2  0  0  0  0
 12 15  2  0  0  0  0
 12 16  1  0  0  0  0
 13 22  2  0  0  0  0
 14 22  1  0  0  0  0
 15 23  1  0  0  0  0
 16 24  2  0  0  0  0
 17 23  2  0  0  0  0
 17 24  1  0  0  0  0
 19 20  2  0  0  0  0
 19 21  1  0  0  0  0
 21 23  1  0  0  0  0
 24 25  1  0  0  0  0
  6 26  1  0  0  0  0
  6 27  1  0  0  0  0
  8 28  1  0  0  0  0
  9 29  1  0  0  0  0
 10 30  1  0  0  0  0
 11 31  1  0  0  0  0
 12 32  1  0  0  0  0
 13 33  1  0  0  0  0
 14 34  1  0  0  0  0
 15 35  1  0  0  0  0
 16 36  1  0  0  0  0
 17 37  1  0  0  0  0
M  END
$$$$
