Z60_A_461
          05071912473D 1   1.00000     0.00000     0
            
 30 31  0  0  0  0            999 V2000
   -1.6079   25.3052   13.3841 Cl  0  0  0  0  0  0  0  0  0  0  0  0
   -1.1003   27.7384   11.7274 S   0  0  0  0  0  0  0  0  0  0  0  0
    1.5475   27.7544    7.6940 S   0  0  0  0  0  0  0  0  0  0  0  0
   -1.0589   29.9471    9.6194 O   0  0  0  0  0  0  0  0  0  0  0  0
    0.5664   31.4375    7.6821 N   0  0  0  0  0  0  0  0  0  0  0  0
    3.3529   28.4240    5.7288 N   0  0  0  0  0  0  0  0  0  0  0  0
    1.9761   30.0712    6.6379 N   0  0  0  0  0  0  0  0  0  0  0  0
    5.6143   25.5346    4.7135 C   0  0  0  0  0  0  0  0  0  0  0  0
    3.7811   27.0398    5.5582 C   0  0  0  0  0  0  0  0  0  0  0  0
    5.1621   26.9719    4.8990 C   0  0  0  0  0  0  0  0  0  0  0  0
   -0.8042   25.4028   10.7207 C   0  0  0  0  0  0  0  0  0  0  0  0
   -0.4896   26.3279    9.6661 C   0  0  0  0  0  0  0  0  0  0  0  0
   -1.1485   26.0494   11.8744 C   0  0  0  0  0  0  0  0  0  0  0  0
    2.3731   28.8139    6.5867 C   0  0  0  0  0  0  0  0  0  0  0  0
   -0.6083   27.6591   10.0646 C   0  0  0  0  0  0  0  0  0  0  0  0
    0.6108   29.0502    8.2782 C   0  0  0  0  0  0  0  0  0  0  0  0
    0.9967   30.1696    7.5888 C   0  0  0  0  0  0  0  0  0  0  0  0
   -0.3958   28.9391    9.3262 C   0  0  0  0  0  0  0  0  0  0  0  0
   -0.1521   31.6748    8.3359 H   0  0  0  0  0  0  0  0  0  0  0  0
    0.9642   32.1448    7.0977 H   0  0  0  0  0  0  0  0  0  0  0  0
    3.8071   29.1276    5.1823 H   0  0  0  0  0  0  0  0  0  0  0  0
    6.5165   25.5221    4.2822 H   0  0  0  0  0  0  0  0  0  0  0  0
    5.6645   25.0834    5.6045 H   0  0  0  0  0  0  0  0  0  0  0  0
    4.9599   25.0517    4.1316 H   0  0  0  0  0  0  0  0  0  0  0  0
    3.1191   26.5611    4.9814 H   0  0  0  0  0  0  0  0  0  0  0  0
    3.8238   26.5976    6.4540 H   0  0  0  0  0  0  0  0  0  0  0  0
    5.1186   27.4178    4.0049 H   0  0  0  0  0  0  0  0  0  0  0  0
    5.8232   27.4494    5.4778 H   0  0  0  0  0  0  0  0  0  0  0  0
   -0.7748   24.4081   10.6222 H   0  0  0  0  0  0  0  0  0  0  0  0
   -0.2153   26.0472    8.7463 H   0  0  0  0  0  0  0  0  0  0  0  0
  1 13  1  0  0  0  0
  2 13  1  0  0  0  0
  2 15  1  0  0  0  0
  3 14  1  0  0  0  0
  3 16  1  0  0  0  0
  4 18  2  0  0  0  0
  5 17  1  0  0  0  0
  6  9  1  0  0  0  0
  6 14  1  0  0  0  0
  7 14  2  0  0  0  0
  7 17  1  0  0  0  0
  8 10  1  0  0  0  0
  9 10  1  0  0  0  0
 11 12  1  0  0  0  0
 11 13  2  0  0  0  0
 12 15  2  0  0  0  0
 15 18  1  0  0  0  0
 16 17  2  0  0  0  0
 16 18  1  0  0  0  0
  5 19  1  0  0  0  0
  5 20  1  0  0  0  0
  6 21  1  0  0  0  0
  8 22  1  0  0  0  0
  8 23  1  0  0  0  0
  8 24  1  0  0  0  0
  9 25  1  0  0  0  0
  9 26  1  0  0  0  0
 10 27  1  0  0  0  0
 10 28  1  0  0  0  0
 11 29  1  0  0  0  0
 12 30  1  0  0  0  0
M  END
$$$$
