PMU_A_500
          05071912473D 1   1.00000     0.00000     0
            
 46 48  0  0  0  0            999 V2000
   -0.9674   27.1717   13.6849 O   0  0  0  0  0  0  0  0  0  0  0  0
   -3.4619   26.7690   11.9008 O   0  0  0  0  0  0  0  0  0  0  0  0
    2.3500   29.3184    5.6831 O   0  0  0  0  0  0  0  0  0  0  0  0
    5.9842   26.9782    4.5348 N   0  0  0  0  0  0  0  0  0  0  0  0
    5.7424   25.5381    6.2363 N   0  0  0  0  0  0  0  0  0  0  0  0
    4.1789   27.3090    5.9598 N   0  0  0  0  0  0  0  0  0  0  0  0
   -0.4878   27.5497   10.1780 N   0  0  0  0  0  0  0  0  0  0  0  0
    4.6758   23.4222    9.1494 C   0  0  0  0  0  0  0  0  0  0  0  0
    7.0214   24.1646    8.5294 C   0  0  0  0  0  0  0  0  0  0  0  0
    0.0087   27.8056   11.5374 C   0  0  0  0  0  0  0  0  0  0  0  0
   -1.7619   26.8159   10.1276 C   0  0  0  0  0  0  0  0  0  0  0  0
    0.5135   29.5274    7.1925 C   0  0  0  0  0  0  0  0  0  0  0  0
   -0.2385   29.1067    8.3277 C   0  0  0  0  0  0  0  0  0  0  0  0
    3.8712   25.7990    7.7775 C   0  0  0  0  0  0  0  0  0  0  0  0
    1.3701   27.2841    8.6445 C   0  0  0  0  0  0  0  0  0  0  0  0
    5.2810   26.6170    5.5945 C   0  0  0  0  0  0  0  0  0  0  0  0
   -1.2492   27.6481   12.3792 C   0  0  1  0  0  0  0  0  0  0  0  0
   -2.0791   26.5951   11.6192 C   0  0  1  0  0  0  0  0  0  0  0  0
    1.6902   28.8276    6.7907 C   0  0  0  0  0  0  0  0  0  0  0  0
    5.0456   25.1269    7.3235 C   0  0  0  0  0  0  0  0  0  0  0  0
    3.4100   26.9316    7.0793 C   0  0  0  0  0  0  0  0  0  0  0  0
    0.1999   27.9719    9.0585 C   0  0  0  0  0  0  0  0  0  0  0  0
    5.6000   23.8894    8.0074 C   0  0  0  0  0  0  0  0  0  0  0  0
    2.1538   27.6832    7.5061 C   0  0  0  0  0  0  0  0  0  0  0  0
   -1.8206   27.0843   14.1992 H   0  0  0  0  0  0  0  0  0  0  0  0
   -3.6252   26.6175   12.8757 H   0  0  0  0  0  0  0  0  0  0  0  0
    3.1807   28.8681    5.3558 H   0  0  0  0  0  0  0  0  0  0  0  0
    5.7066   27.7752    3.9984 H   0  0  0  0  0  0  0  0  0  0  0  0
    6.7938   26.4544    4.2697 H   0  0  0  0  0  0  0  0  0  0  0  0
    3.7597   23.2498    8.7875 H   0  0  0  0  0  0  0  0  0  0  0  0
    5.0398   22.5812    9.5499 H   0  0  0  0  0  0  0  0  0  0  0  0
    4.6286   24.1325    9.8517 H   0  0  0  0  0  0  0  0  0  0  0  0
    7.6018   24.4657    7.7728 H   0  0  0  0  0  0  0  0  0  0  0  0
    6.9874   24.8791    9.2282 H   0  0  0  0  0  0  0  0  0  0  0  0
    7.3985   23.3278    8.9263 H   0  0  0  0  0  0  0  0  0  0  0  0
    0.3844   28.7289   11.6176 H   0  0  0  0  0  0  0  0  0  0  0  0
    0.7056   27.1382   11.7998 H   0  0  0  0  0  0  0  0  0  0  0  0
   -1.6585   25.9449    9.6474 H   0  0  0  0  0  0  0  0  0  0  0  0
   -2.4744   27.3590    9.6833 H   0  0  0  0  0  0  0  0  0  0  0  0
    0.2120   30.3248    6.6699 H   0  0  0  0  0  0  0  0  0  0  0  0
   -1.0614   29.6028    8.6047 H   0  0  0  0  0  0  0  0  0  0  0  0
    3.3806   25.4688    8.5839 H   0  0  0  0  0  0  0  0  0  0  0  0
    1.6637   26.4847    9.1686 H   0  0  0  0  0  0  0  0  0  0  0  0
   -1.7465   28.5144   12.4257 H   0  0  0  0  0  0  0  0  0  0  0  0
   -1.7918   25.6772   11.8930 H   0  0  0  0  0  0  0  0  0  0  0  0
    5.6533   23.1561    7.3296 H   0  0  0  0  0  0  0  0  0  0  0  0
  1 17  1  0  0  0  0
  2 18  1  0  0  0  0
  3 19  1  0  0  0  0
  4 16  1  0  0  0  0
  5 16  2  0  0  0  0
  5 20  1  0  0  0  0
  6 16  1  0  0  0  0
  6 21  2  0  0  0  0
  7 10  1  0  0  0  0
  7 11  1  0  0  0  0
  7 22  1  0  0  0  0
  8 23  1  0  0  0  0
  9 23  1  0  0  0  0
 10 17  1  0  0  0  0
 11 18  1  0  0  0  0
 12 13  1  0  0  0  0
 12 19  2  0  0  0  0
 13 22  2  0  0  0  0
 14 20  2  0  0  0  0
 14 21  1  0  0  0  0
 15 22  1  0  0  0  0
 15 24  2  0  0  0  0
 17 18  1  0  0  0  0
 19 24  1  0  0  0  0
 20 23  1  0  0  0  0
 21 24  1  0  0  0  0
  1 25  1  0  0  0  0
  2 26  1  0  0  0  0
  3 27  1  0  0  0  0
  4 28  1  0  0  0  0
  4 29  1  0  0  0  0
  8 30  1  0  0  0  0
  8 31  1  0  0  0  0
  8 32  1  0  0  0  0
  9 33  1  0  0  0  0
  9 34  1  0  0  0  0
  9 35  1  0  0  0  0
 10 36  1  0  0  0  0
 10 37  1  0  0  0  0
 11 38  1  0  0  0  0
 11 39  1  0  0  0  0
 12 40  1  0  0  0  0
 13 41  1  0  0  0  0
 14 42  1  0  0  0  0
 15 43  1  0  0  0  0
 17 44  1  0  0  0  0
 18 45  1  0  0  0  0
 23 46  1  0  0  0  0
M  END
$$$$
