3TI_A_299
          05071912473D 1   1.00000     0.00000     0
            
 35 37  0  0  0  0            999 V2000
    7.3284   24.2030    5.8207 O   0  0  0  0  0  0  0  0  0  0  0  0
    2.3471   30.3598    6.3323 O   0  0  0  0  0  0  0  0  0  0  0  0
    3.3308   28.0736    6.8094 N   0  0  0  0  0  0  0  0  0  0  0  0
    2.2503   27.8632    7.7654 C   0  0  0  0  0  0  0  0  0  0  0  0
   -1.8770   28.6143   10.9478 C   0  0  0  0  0  0  0  0  0  0  0  0
   -0.9716   27.5505   10.7470 C   0  0  0  0  0  0  0  0  0  0  0  0
    5.9243   25.9576    5.0400 C   0  0  0  0  0  0  0  0  0  0  0  0
    5.8036   25.2789    7.3411 C   0  0  0  0  0  0  0  0  0  0  0  0
   -1.7554   29.7852   10.2066 C   0  0  0  0  0  0  0  0  0  0  0  0
    0.4524   31.2763    7.4811 C   0  0  0  0  0  0  0  0  0  0  0  0
    0.0585   27.6827    9.7752 C   0  0  0  0  0  0  0  0  0  0  0  0
    4.9246   26.9302    5.2817 C   0  0  0  0  0  0  0  0  0  0  0  0
    4.7967   26.2534    7.5864 C   0  0  0  0  0  0  0  0  0  0  0  0
   -0.5823   31.1409    8.4466 C   0  0  0  0  0  0  0  0  0  0  0  0
    6.3624   25.1444    6.0632 C   0  0  0  0  0  0  0  0  0  0  0  0
    1.3430   30.2222    7.2715 C   0  0  0  0  0  0  0  0  0  0  0  0
    4.3664   27.0707    6.5647 C   0  0  0  0  0  0  0  0  0  0  0  0
   -0.7024   29.9250    9.2149 C   0  0  0  0  0  0  0  0  0  0  0  0
    1.2408   29.0286    8.0148 C   0  0  0  0  0  0  0  0  0  0  0  0
    0.1838   28.8808    9.0092 C   0  0  0  0  0  0  0  0  0  0  0  0
    7.6477   23.6120    6.5615 H   0  0  0  0  0  0  0  0  0  0  0  0
    2.9904   29.6106    6.1746 H   0  0  0  0  0  0  0  0  0  0  0  0
    3.3649   28.9350    6.3027 H   0  0  0  0  0  0  0  0  0  0  0  0
    2.6725   27.6446    8.6452 H   0  0  0  0  0  0  0  0  0  0  0  0
    1.7212   27.0773    7.4452 H   0  0  0  0  0  0  0  0  0  0  0  0
   -2.6078   28.5261   11.6246 H   0  0  0  0  0  0  0  0  0  0  0  0
   -1.0536   26.7106   11.2836 H   0  0  0  0  0  0  0  0  0  0  0  0
    6.3139   25.8601    4.1242 H   0  0  0  0  0  0  0  0  0  0  0  0
    6.1143   24.6868    8.0846 H   0  0  0  0  0  0  0  0  0  0  0  0
   -2.3977   30.5367   10.3574 H   0  0  0  0  0  0  0  0  0  0  0  0
    0.5416   32.1220    6.9549 H   0  0  0  0  0  0  0  0  0  0  0  0
    0.7002   26.9302    9.6273 H   0  0  0  0  0  0  0  0  0  0  0  0
    4.6139   27.5202    4.5364 H   0  0  0  0  0  0  0  0  0  0  0  0
    4.4013   26.3449    8.5003 H   0  0  0  0  0  0  0  0  0  0  0  0
   -1.2284   31.8899    8.5939 H   0  0  0  0  0  0  0  0  0  0  0  0
  1 15  1  0  0  0  0
  2 16  1  0  0  0  0
  3  4  1  0  0  0  0
  3 17  1  0  0  0  0
  4 19  1  0  0  0  0
  5  6  2  0  0  0  0
  5  9  1  0  0  0  0
  6 11  1  0  0  0  0
  7 12  1  0  0  0  0
  7 15  2  0  0  0  0
  8 13  2  0  0  0  0
  8 15  1  0  0  0  0
  9 18  2  0  0  0  0
 10 14  2  0  0  0  0
 10 16  1  0  0  0  0
 11 20  2  0  0  0  0
 12 17  2  0  0  0  0
 13 17  1  0  0  0  0
 14 18  1  0  0  0  0
 16 19  2  0  0  0  0
 18 20  1  0  0  0  0
 19 20  1  0  0  0  0
  1 21  1  0  0  0  0
  2 22  1  0  0  0  0
  3 23  1  0  0  0  0
  4 24  1  0  0  0  0
  4 25  1  0  0  0  0
  5 26  1  0  0  0  0
  6 27  1  0  0  0  0
  7 28  1  0  0  0  0
  8 29  1  0  0  0  0
  9 30  1  0  0  0  0
 10 31  1  0  0  0  0
 11 32  1  0  0  0  0
 12 33  1  0  0  0  0
 13 34  1  0  0  0  0
 14 35  1  0  0  0  0
M  END
$$$$
