0BY_A_299
          05071912473D 1   1.00000     0.00000     0
            
 37 39  0  0  0  0            999 V2000
   -0.2828   27.5527   11.7623 Cl  0  0  0  0  0  0  0  0  0  0  0  0
    5.7387   22.8431    6.8150 O   0  0  0  0  0  0  0  0  0  0  0  0
    7.1008   23.6281    5.2919 O   0  0  0  0  0  0  0  0  0  0  0  0
    2.2277   30.7180    6.6037 N   0  0  0  0  0  0  0  0  0  0  0  0
    1.7790   28.5816    7.4224 N   0  0  0  0  0  0  0  0  0  0  0  0
    3.6841   28.9578    6.0033 N   0  0  0  0  0  0  0  0  0  0  0  0
   -0.1194   28.1136    8.8512 N   0  0  0  0  0  0  0  0  0  0  0  0
    1.1567   31.2265    7.2306 C   0  0  0  0  0  0  0  0  0  0  0  0
   -3.7224   29.2631   10.7433 C   0  0  0  0  0  0  0  0  0  0  0  0
   -3.5400   29.4879    9.3818 C   0  0  0  0  0  0  0  0  0  0  0  0
    0.3617   30.3650    7.9859 C   0  0  0  0  0  0  0  0  0  0  0  0
   -2.7169   28.6648   11.4830 C   0  0  0  0  0  0  0  0  0  0  0  0
   -2.3692   29.1131    8.7432 C   0  0  0  0  0  0  0  0  0  0  0  0
    5.1094   27.2574    5.1125 C   0  0  0  0  0  0  0  0  0  0  0  0
    3.9410   26.7418    7.1580 C   0  0  0  0  0  0  0  0  0  0  0  0
    5.7031   26.0121    5.1228 C   0  0  0  0  0  0  0  0  0  0  0  0
    4.5552   25.4836    7.1758 C   0  0  0  0  0  0  0  0  0  0  0  0
    6.1198   23.7903    6.0777 C   0  0  0  0  0  0  0  0  0  0  0  0
    2.5258   29.4228    6.7034 C   0  0  0  0  0  0  0  0  0  0  0  0
   -1.5362   28.2990   10.8476 C   0  0  0  0  0  0  0  0  0  0  0  0
    0.6817   29.0155    8.0818 C   0  0  0  0  0  0  0  0  0  0  0  0
    4.2287   27.6347    6.1151 C   0  0  0  0  0  0  0  0  0  0  0  0
   -1.3477   28.5238    9.4855 C   0  0  0  0  0  0  0  0  0  0  0  0
    5.4297   25.1182    6.1404 C   0  0  0  0  0  0  0  0  0  0  0  0
    4.9646   22.9722    7.4347 H   0  0  0  0  0  0  0  0  0  0  0  0
    4.1470   29.6005    5.3928 H   0  0  0  0  0  0  0  0  0  0  0  0
    0.1831   27.1658    8.9527 H   0  0  0  0  0  0  0  0  0  0  0  0
    0.9339   32.1987    7.1583 H   0  0  0  0  0  0  0  0  0  0  0  0
   -4.5775   29.5330   11.1858 H   0  0  0  0  0  0  0  0  0  0  0  0
   -4.2672   29.9280    8.8551 H   0  0  0  0  0  0  0  0  0  0  0  0
   -0.4432   30.7201    8.4614 H   0  0  0  0  0  0  0  0  0  0  0  0
   -2.8384   28.4981   12.4615 H   0  0  0  0  0  0  0  0  0  0  0  0
   -2.2584   29.2637    7.7608 H   0  0  0  0  0  0  0  0  0  0  0  0
    5.3170   27.8966    4.3720 H   0  0  0  0  0  0  0  0  0  0  0  0
    3.3026   27.0016    7.8825 H   0  0  0  0  0  0  0  0  0  0  0  0
    6.3341   25.7554    4.3907 H   0  0  0  0  0  0  0  0  0  0  0  0
    4.3713   24.8467    7.9246 H   0  0  0  0  0  0  0  0  0  0  0  0
  1 20  1  0  0  0  0
  2 18  1  0  0  0  0
  3 18  2  0  0  0  0
  4  8  1  0  0  0  0
  4 19  2  0  0  0  0
  5 19  1  0  0  0  0
  5 21  2  0  0  0  0
  6 19  1  0  0  0  0
  6 22  1  0  0  0  0
  7 21  1  0  0  0  0
  7 23  1  0  0  0  0
  8 11  2  0  0  0  0
  9 10  2  0  0  0  0
  9 12  1  0  0  0  0
 10 13  1  0  0  0  0
 11 21  1  0  0  0  0
 12 20  2  0  0  0  0
 13 23  2  0  0  0  0
 14 16  1  0  0  0  0
 14 22  2  0  0  0  0
 15 17  2  0  0  0  0
 15 22  1  0  0  0  0
 16 24  2  0  0  0  0
 17 24  1  0  0  0  0
 18 24  1  0  0  0  0
 20 23  1  0  0  0  0
  2 25  1  0  0  0  0
  6 26  1  0  0  0  0
  7 27  1  0  0  0  0
  8 28  1  0  0  0  0
  9 29  1  0  0  0  0
 10 30  1  0  0  0  0
 11 31  1  0  0  0  0
 12 32  1  0  0  0  0
 13 33  1  0  0  0  0
 14 34  1  0  0  0  0
 15 35  1  0  0  0  0
 16 36  1  0  0  0  0
 17 37  1  0  0  0  0
M  END
$$$$
