PDY_A_302
          05071912473D 1   1.00000     0.00000     0
            
 53 56  0  0  0  0            999 V2000
    7.1635   23.9382    6.3545 O   0  0  0  0  0  0  0  0  0  0  0  0
    1.8181   30.4055    6.5868 N   0  0  0  0  0  0  0  0  0  0  0  0
   -1.8070   26.6343   12.4842 N   0  0  0  0  0  0  0  0  0  0  0  0
   -0.3546   28.3022    8.5235 N   0  0  0  0  0  0  0  0  0  0  0  0
   -0.4505   25.9517    9.0378 N   0  0  0  0  0  0  0  0  0  0  0  0
    3.2440   27.8773    6.2619 N   0  0  0  0  0  0  0  0  0  0  0  0
    1.4440   29.1871    7.1343 N   0  0  0  0  0  0  0  0  0  0  0  0
    9.3902   24.2308    5.4132 C   0  0  0  0  0  0  0  0  0  0  0  0
    1.9586   25.3593    7.5792 C   0  0  0  0  0  0  0  0  0  0  0  0
    8.0035   23.6283    5.2304 C   0  0  0  0  0  0  0  0  0  0  0  0
    0.8495   31.3015    7.0235 C   0  0  0  0  0  0  0  0  0  0  0  0
   -2.4037   25.3321   12.8020 C   0  0  0  0  0  0  0  0  0  0  0  0
   -0.9289   26.8051   11.3357 C   0  0  0  0  0  0  0  0  0  0  0  0
   -2.9561   24.6044   11.5650 C   0  0  0  0  0  0  0  0  0  0  0  0
   -0.1482   30.7113    7.8120 C   0  0  0  0  0  0  0  0  0  0  0  0
   -1.9280   24.6250   10.4344 C   0  0  0  0  0  0  0  0  0  0  0  0
    5.6976   25.4317    7.5675 C   0  0  0  0  0  0  0  0  0  0  0  0
    5.6751   25.4182    5.1353 C   0  0  0  0  0  0  0  0  0  0  0  0
    4.7138   26.4353    7.5680 C   0  0  0  0  0  0  0  0  0  0  0  0
    4.6953   26.4058    5.1342 C   0  0  0  0  0  0  0  0  0  0  0  0
    0.1531   27.0269    8.4325 C   0  0  0  0  0  0  0  0  0  0  0  0
    0.2684   29.3369    7.8824 C   0  0  0  0  0  0  0  0  0  0  0  0
    2.0971   27.9369    6.9902 C   0  0  0  0  0  0  0  0  0  0  0  0
    6.1909   24.9277    6.3496 C   0  0  0  0  0  0  0  0  0  0  0  0
   -1.4552   26.0473   10.0961 C   0  0  2  0  0  0  0  0  0  0  0  0
    4.2085   26.9177    6.3412 C   0  0  0  0  0  0  0  0  0  0  0  0
    1.4129   26.7725    7.6521 C   0  0  0  0  0  0  0  0  0  0  0  0
   -1.2776   26.9064   13.2878 H   0  0  0  0  0  0  0  0  0  0  0  0
   -0.1835   25.0375    8.7329 H   0  0  0  0  0  0  0  0  0  0  0  0
    3.3951   28.6124    5.6010 H   0  0  0  0  0  0  0  0  0  0  0  0
    9.9588   24.0046    4.6223 H   0  0  0  0  0  0  0  0  0  0  0  0
    9.3137   25.2244    5.4955 H   0  0  0  0  0  0  0  0  0  0  0  0
    9.8086   23.8589    6.2418 H   0  0  0  0  0  0  0  0  0  0  0  0
    2.7936   25.3523    7.0290 H   0  0  0  0  0  0  0  0  0  0  0  0
    2.1647   25.0335    8.5019 H   0  0  0  0  0  0  0  0  0  0  0  0
    1.2773   24.7601    7.1586 H   0  0  0  0  0  0  0  0  0  0  0  0
    7.5905   24.0008    4.3993 H   0  0  0  0  0  0  0  0  0  0  0  0
    8.0855   22.6353    5.1457 H   0  0  0  0  0  0  0  0  0  0  0  0
    0.8630   32.2754    6.7966 H   0  0  0  0  0  0  0  0  0  0  0  0
   -3.1531   25.4746   13.4486 H   0  0  0  0  0  0  0  0  0  0  0  0
   -1.7041   24.7558   13.2243 H   0  0  0  0  0  0  0  0  0  0  0  0
   -0.0208   26.4562   11.5673 H   0  0  0  0  0  0  0  0  0  0  0  0
   -0.8663   27.7790   11.1176 H   0  0  0  0  0  0  0  0  0  0  0  0
   -3.7916   25.0610   11.2594 H   0  0  0  0  0  0  0  0  0  0  0  0
   -3.1633   23.6561   11.8053 H   0  0  0  0  0  0  0  0  0  0  0  0
   -0.9518   31.1406    8.2242 H   0  0  0  0  0  0  0  0  0  0  0  0
   -2.3408   24.2214    9.6179 H   0  0  0  0  0  0  0  0  0  0  0  0
   -1.1359   24.0809   10.7111 H   0  0  0  0  0  0  0  0  0  0  0  0
    6.0477   25.0753    8.4337 H   0  0  0  0  0  0  0  0  0  0  0  0
    6.0151   25.0546    4.2680 H   0  0  0  0  0  0  0  0  0  0  0  0
    4.3736   26.8055    8.4324 H   0  0  0  0  0  0  0  0  0  0  0  0
    4.3375   26.7510    4.2666 H   0  0  0  0  0  0  0  0  0  0  0  0
   -2.2374   26.5543    9.7338 H   0  0  0  0  0  0  0  0  0  0  0  0
  1 10  1  0  0  0  0
  1 24  1  0  0  0  0
  2  7  1  0  0  0  0
  2 11  2  0  0  0  0
  3 12  1  0  0  0  0
  3 13  1  0  0  0  0
  4 21  2  0  0  0  0
  4 22  1  0  0  0  0
  5 21  1  0  0  0  0
  5 25  1  0  0  0  0
  6 23  1  0  0  0  0
  6 26  1  0  0  0  0
  7 22  1  0  0  0  0
  7 23  1  0  0  0  0
  8 10  1  0  0  0  0
  9 27  1  0  0  0  0
 11 15  1  0  0  0  0
 12 14  1  0  0  0  0
 13 25  1  0  0  0  0
 14 16  1  0  0  0  0
 15 22  2  0  0  0  0
 16 25  1  0  0  0  0
 17 19  2  0  0  0  0
 17 24  1  0  0  0  0
 18 20  1  0  0  0  0
 18 24  2  0  0  0  0
 19 26  1  0  0  0  0
 20 26  2  0  0  0  0
 21 27  1  0  0  0  0
 23 27  2  0  0  0  0
  3 28  1  0  0  0  0
  5 29  1  0  0  0  0
  6 30  1  0  0  0  0
  8 31  1  0  0  0  0
  8 32  1  0  0  0  0
  8 33  1  0  0  0  0
  9 34  1  0  0  0  0
  9 35  1  0  0  0  0
  9 36  1  0  0  0  0
 10 37  1  0  0  0  0
 10 38  1  0  0  0  0
 11 39  1  0  0  0  0
 12 40  1  0  0  0  0
 12 41  1  0  0  0  0
 13 42  1  0  0  0  0
 13 43  1  0  0  0  0
 14 44  1  0  0  0  0
 14 45  1  0  0  0  0
 15 46  1  0  0  0  0
 16 47  1  0  0  0  0
 16 48  1  0  0  0  0
 17 49  1  0  0  0  0
 18 50  1  0  0  0  0
 19 51  1  0  0  0  0
 20 52  1  0  0  0  0
 25 53  1  0  0  0  0
M  END
$$$$
