7YG_A_1302
          05071912473D 1   1.00000     0.00000     0
            
 54 56  0  0  0  0            999 V2000
    6.5892   24.0130    6.9601 S   0  0  0  0  0  0  0  0  0  0  0  0
    7.2744   23.9922    5.7042 O   0  0  0  0  0  0  0  0  0  0  0  0
    7.3414   24.1898    8.1662 O   0  0  0  0  0  0  0  0  0  0  0  0
   -1.4013   29.9719    9.0377 O   0  0  0  0  0  0  0  0  0  0  0  0
   -0.0113   31.6145    7.3711 N   0  0  0  0  0  0  0  0  0  0  0  0
   -3.5622   27.3683   11.5833 N   0  0  0  0  0  0  0  0  0  0  0  0
    1.8161   30.6615    6.3352 N   0  0  0  0  0  0  0  0  0  0  0  0
    1.4294   28.2871    7.7534 N   0  0  0  0  0  0  0  0  0  0  0  0
    5.8182   22.6015    7.1011 N   0  0  0  0  0  0  0  0  0  0  0  0
   -0.4516   27.9801    9.6304 N   0  0  0  0  0  0  0  0  0  0  0  0
    4.6915   19.8144    6.9870 N   0  0  0  0  0  0  0  0  0  0  0  0
    5.3181   18.5259    6.7033 C   0  0  0  0  0  0  0  0  0  0  0  0
    3.2897   19.6214    7.3592 C   0  0  0  0  0  0  0  0  0  0  0  0
   -3.0939   26.4253   12.4066 C   0  0  0  0  0  0  0  0  0  0  0  0
   -2.7077   27.8793   10.6871 C   0  0  0  0  0  0  0  0  0  0  0  0
    2.6257   29.6080    6.1816 C   0  0  0  0  0  0  0  0  0  0  0  0
   -1.7893   25.9821   12.3925 C   0  0  0  0  0  0  0  0  0  0  0  0
   -0.9220   26.5110   11.4563 C   0  0  0  0  0  0  0  0  0  0  0  0
    4.4579   25.3841    7.9489 C   0  0  0  0  0  0  0  0  0  0  0  0
    5.3654   26.2049    5.8772 C   0  0  0  0  0  0  0  0  0  0  0  0
    3.5138   26.3938    7.9295 C   0  0  0  0  0  0  0  0  0  0  0  0
    4.4127   27.2090    5.8706 C   0  0  0  0  0  0  0  0  0  0  0  0
    4.7581   22.2288    6.1537 C   0  0  0  0  0  0  0  0  0  0  0  0
    4.8177   20.7341    5.8504 C   0  0  0  0  0  0  0  0  0  0  0  0
   -0.5178   29.1292    8.9258 C   0  0  0  0  0  0  0  0  0  0  0  0
    5.3699   25.2817    6.9134 C   0  0  0  0  0  0  0  0  0  0  0  0
    0.7791   30.5538    7.1940 C   0  0  0  0  0  0  0  0  0  0  0  0
   -1.3711   27.4906   10.5868 C   0  0  0  0  0  0  0  0  0  0  0  0
    2.4577   28.4190    6.8967 C   0  0  0  0  0  0  0  0  0  0  0  0
    0.5925   29.3257    7.9344 C   0  0  0  0  0  0  0  0  0  0  0  0
    3.4742   27.3358    6.9015 C   0  0  0  0  0  0  0  0  0  0  0  0
   -0.8051   31.6094    8.0021 H   0  0  0  0  0  0  0  0  0  0  0  0
    0.1569   32.4584    6.8305 H   0  0  0  0  0  0  0  0  0  0  0  0
    5.9828   21.9145    7.8292 H   0  0  0  0  0  0  0  0  0  0  0  0
    0.3400   27.3631    9.4747 H   0  0  0  0  0  0  0  0  0  0  0  0
    5.1096   17.7153    7.3998 H   0  0  0  0  0  0  0  0  0  0  0  0
    5.0850   18.1364    5.7133 H   0  0  0  0  0  0  0  0  0  0  0  0
    6.3962   18.6727    6.7329 H   0  0  0  0  0  0  0  0  0  0  0  0
    2.6997   20.5198    7.5415 H   0  0  0  0  0  0  0  0  0  0  0  0
    2.7628   19.0392    6.6043 H   0  0  0  0  0  0  0  0  0  0  0  0
    3.2379   19.0375    8.2772 H   0  0  0  0  0  0  0  0  0  0  0  0
   -3.8120   26.0370   13.1276 H   0  0  0  0  0  0  0  0  0  0  0  0
   -3.1767   28.6193   10.0408 H   0  0  0  0  0  0  0  0  0  0  0  0
    3.4049   29.7638    5.4414 H   0  0  0  0  0  0  0  0  0  0  0  0
   -1.4445   25.2183   13.0879 H   0  0  0  0  0  0  0  0  0  0  0  0
    0.1034   26.1456   11.4462 H   0  0  0  0  0  0  0  0  0  0  0  0
    4.4647   24.6627    8.7632 H   0  0  0  0  0  0  0  0  0  0  0  0
    6.0769   26.1359    5.0568 H   0  0  0  0  0  0  0  0  0  0  0  0
    2.8094   26.4299    8.7599 H   0  0  0  0  0  0  0  0  0  0  0  0
    4.4414   27.8961    5.0273 H   0  0  0  0  0  0  0  0  0  0  0  0
    4.8590   22.7958    5.2289 H   0  0  0  0  0  0  0  0  0  0  0  0
    3.7871   22.5125    6.5551 H   0  0  0  0  0  0  0  0  0  0  0  0
    5.7430   20.5014    5.3260 H   0  0  0  0  0  0  0  0  0  0  0  0
    4.0471   20.4570    5.1315 H   0  0  0  0  0  0  0  0  0  0  0  0
  1  2  2  0  0  0  0
  1  3  2  0  0  0  0
  1  9  1  0  0  0  0
  1 26  1  0  0  0  0
  4 25  2  0  0  0  0
  5 27  1  0  0  0  0
  5 32  1  0  0  0  0
  5 33  1  0  0  0  0
  6 14  2  0  0  0  0
  6 15  1  0  0  0  0
  7 16  1  0  0  0  0
  7 27  2  0  0  0  0
  8 29  1  0  0  0  0
  8 30  2  0  0  0  0
  9 23  1  0  0  0  0
  9 34  1  0  0  0  0
 10 25  1  0  0  0  0
 10 28  1  0  0  0  0
 10 35  1  0  0  0  0
 11 12  1  0  0  0  0
 11 13  1  0  0  0  0
 11 24  1  0  0  0  0
 12 36  1  0  0  0  0
 12 37  1  0  0  0  0
 12 38  1  0  0  0  0
 13 39  1  0  0  0  0
 13 40  1  0  0  0  0
 13 41  1  0  0  0  0
 14 17  1  0  0  0  0
 14 42  1  0  0  0  0
 15 28  2  0  0  0  0
 15 43  1  0  0  0  0
 16 29  2  0  0  0  0
 16 44  1  0  0  0  0
 17 18  2  0  0  0  0
 17 45  1  0  0  0  0
 18 28  1  0  0  0  0
 18 46  1  0  0  0  0
 19 21  1  0  0  0  0
 19 26  2  0  0  0  0
 19 47  1  0  0  0  0
 20 22  2  0  0  0  0
 20 26  1  0  0  0  0
 20 48  1  0  0  0  0
 21 31  2  0  0  0  0
 21 49  1  0  0  0  0
 22 31  1  0  0  0  0
 22 50  1  0  0  0  0
 23 24  1  0  0  0  0
 23 51  1  0  0  0  0
 23 52  1  0  0  0  0
 24 53  1  0  0  0  0
 24 54  1  0  0  0  0
 25 30  1  0  0  0  0
 27 30  1  0  0  0  0
 29 31  1  0  0  0  0
M  END
$$$$
