ESJ_A_1299
          05071912473D 1   1.00000     0.00000     0
            
 26 28  0  0  0  0            999 V2000
   -1.2348   24.6534   10.7762 S   0  0  0  0  0  0  0  0  0  0  0  0
    0.6163   27.1280    9.1375 S   0  0  0  0  0  0  0  0  0  0  0  0
   -3.6184   24.7652   14.2153 O   0  0  0  0  0  0  0  0  0  0  0  0
   -3.7615   25.7845   12.2412 O   0  0  0  0  0  0  0  0  0  0  0  0
    1.4412   31.2879    6.2744 O   0  0  0  0  0  0  0  0  0  0  0  0
   -1.2613   26.5899   12.3745 N   0  0  0  0  0  0  0  0  0  0  0  0
   -1.0867   28.4674   10.1676 N   0  0  0  0  0  0  0  0  0  0  0  0
   -1.1032   24.1507   12.4671 C   0  0  0  0  0  0  0  0  0  0  0  0
   -0.2452   31.2544    7.9526 C   0  0  0  0  0  0  0  0  0  0  0  0
   -0.8869   30.5293    8.9472 C   0  0  0  0  0  0  0  0  0  0  0  0
    1.1060   29.3186    7.5738 C   0  0  0  0  0  0  0  0  0  0  0  0
   -3.1210   25.2927   13.1952 C   0  0  0  0  0  0  0  0  0  0  0  0
   -0.9553   26.3121   11.1016 C   0  0  0  0  0  0  0  0  0  0  0  0
   -0.5581   27.2452   10.2361 C   0  0  0  0  0  0  0  0  0  0  0  0
    0.7753   30.6278    7.2552 C   0  0  0  0  0  0  0  0  0  0  0  0
    0.4473   28.6770    8.5414 C   0  0  0  0  0  0  0  0  0  0  0  0
   -1.7249   25.3710   13.1565 C   0  0  2  0  0  0  0  0  0  0  0  0
   -0.5460   29.2719    9.2307 C   0  0  0  0  0  0  0  0  0  0  0  0
   -3.0224   24.3974   14.9291 H   0  0  0  0  0  0  0  0  0  0  0  0
    2.1768   30.8307    5.7744 H   0  0  0  0  0  0  0  0  0  0  0  0
   -0.1511   24.0148   12.7409 H   0  0  0  0  0  0  0  0  0  0  0  0
   -1.6244   23.3167   12.6480 H   0  0  0  0  0  0  0  0  0  0  0  0
   -0.5101   32.1964    7.7465 H   0  0  0  0  0  0  0  0  0  0  0  0
   -1.6250   30.9618    9.4652 H   0  0  0  0  0  0  0  0  0  0  0  0
    1.8396   28.8545    7.0773 H   0  0  0  0  0  0  0  0  0  0  0  0
   -1.3753   25.4309   14.0915 H   0  0  0  0  0  0  0  0  0  0  0  0
  1  8  1  0  0  0  0
  1 13  1  0  0  0  0
  2 14  1  0  0  0  0
  2 16  1  0  0  0  0
  3 12  1  0  0  0  0
  4 12  2  0  0  0  0
  5 15  1  0  0  0  0
  6 13  2  0  0  0  0
  6 17  1  0  0  0  0
  7 14  2  0  0  0  0
  7 18  1  0  0  0  0
  8 17  1  0  0  0  0
  9 10  1  0  0  0  0
  9 15  2  0  0  0  0
 10 18  2  0  0  0  0
 11 15  1  0  0  0  0
 11 16  2  0  0  0  0
 12 17  1  0  0  0  0
 13 14  1  0  0  0  0
 16 18  1  0  0  0  0
  3 19  1  0  0  0  0
  5 20  1  0  0  0  0
  8 21  1  0  0  0  0
  8 22  1  0  0  0  0
  9 23  1  0  0  0  0
 10 24  1  0  0  0  0
 11 25  1  0  0  0  0
 17 26  1  0  0  0  0
M  END
$$$$
