03K_A_300
          05071912473D 1   1.00000     0.00000     0
            
 34 36  0  0  0  0            999 V2000
    7.6616   23.8570    3.9944 O   0  0  0  0  0  0  0  0  0  0  0  0
    2.3660   26.7963    7.9354 O   0  0  0  0  0  0  0  0  0  0  0  0
    8.6772   23.9714    6.0059 N   0  0  0  0  0  0  0  0  0  0  0  0
    1.8528   30.6046    6.4597 N   0  0  0  0  0  0  0  0  0  0  0  0
    0.8363   31.2025    6.8826 N   0  0  0  0  0  0  0  0  0  0  0  0
    2.8766   28.5220    6.5351 N   0  0  0  0  0  0  0  0  0  0  0  0
    6.0752   24.9369    7.0485 C   0  0  0  0  0  0  0  0  0  0  0  0
    5.8204   25.8718    4.8498 C   0  0  0  0  0  0  0  0  0  0  0  0
    4.9973   25.7099    7.4896 C   0  0  0  0  0  0  0  0  0  0  0  0
    4.7447   26.6337    5.2801 C   0  0  0  0  0  0  0  0  0  0  0  0
   -1.6938   30.1957    9.5072 C   0  0  0  0  0  0  0  0  0  0  0  0
   -2.4095   29.7665    8.2146 C   0  0  0  0  0  0  0  0  0  0  0  0
    0.7019   29.1244    7.5633 C   0  0  0  0  0  0  0  0  0  0  0  0
    7.6855   24.2342    5.1689 C   0  0  0  0  0  0  0  0  0  0  0  0
    3.0986   27.3209    7.0961 C   0  0  0  0  0  0  0  0  0  0  0  0
    1.8360   29.3340    6.8576 C   0  0  0  0  0  0  0  0  0  0  0  0
    0.0789   30.3214    7.5546 C   0  0  0  0  0  0  0  0  0  0  0  0
    6.5122   25.0553    5.7307 C   0  0  0  0  0  0  0  0  0  0  0  0
    4.3166   26.5483    6.6007 C   0  0  0  0  0  0  0  0  0  0  0  0
   -1.2701   30.7899    8.1510 C   0  0  0  0  0  0  0  0  0  0  0  0
    8.6385   24.3055    6.9476 H   0  0  0  0  0  0  0  0  0  0  0  0
    9.4649   23.4388    5.6963 H   0  0  0  0  0  0  0  0  0  0  0  0
    2.5724   31.0212    5.9041 H   0  0  0  0  0  0  0  0  0  0  0  0
    3.5180   28.8381    5.8360 H   0  0  0  0  0  0  0  0  0  0  0  0
    6.5296   24.3031    7.6745 H   0  0  0  0  0  0  0  0  0  0  0  0
    6.1009   25.9119    3.8908 H   0  0  0  0  0  0  0  0  0  0  0  0
    4.7110   25.6633    8.4466 H   0  0  0  0  0  0  0  0  0  0  0  0
    4.2769   27.2444    4.6411 H   0  0  0  0  0  0  0  0  0  0  0  0
   -1.0919   29.5543    9.9829 H   0  0  0  0  0  0  0  0  0  0  0  0
   -2.1693   30.7660   10.1771 H   0  0  0  0  0  0  0  0  0  0  0  0
   -3.3514   30.0566    8.0452 H   0  0  0  0  0  0  0  0  0  0  0  0
   -2.2741   28.8449    7.8510 H   0  0  0  0  0  0  0  0  0  0  0  0
    0.3947   28.2756    7.9936 H   0  0  0  0  0  0  0  0  0  0  0  0
   -1.5306   31.7396    7.9774 H   0  0  0  0  0  0  0  0  0  0  0  0
  1 14  2  0  0  0  0
  2 15  2  0  0  0  0
  3 14  1  0  0  0  0
  4  5  1  0  0  0  0
  4 16  1  0  0  0  0
  5 17  2  0  0  0  0
  6 15  1  0  0  0  0
  6 16  1  0  0  0  0
  7  9  1  0  0  0  0
  7 18  2  0  0  0  0
  8 10  2  0  0  0  0
  8 18  1  0  0  0  0
  9 19  2  0  0  0  0
 10 19  1  0  0  0  0
 11 12  1  0  0  0  0
 11 20  1  0  0  0  0
 12 20  1  0  0  0  0
 13 16  2  0  0  0  0
 13 17  1  0  0  0  0
 14 18  1  0  0  0  0
 15 19  1  0  0  0  0
 17 20  1  0  0  0  0
  3 21  1  0  0  0  0
  3 22  1  0  0  0  0
  4 23  1  0  0  0  0
  6 24  1  0  0  0  0
  7 25  1  0  0  0  0
  8 26  1  0  0  0  0
  9 27  1  0  0  0  0
 10 28  1  0  0  0  0
 11 29  1  0  0  0  0
 11 30  1  0  0  0  0
 12 31  1  0  0  0  0
 12 32  1  0  0  0  0
 13 33  1  0  0  0  0
 20 34  1  0  0  0  0
M  END
$$$$
