10K_A_301
          05071912473D 1   1.00000     0.00000     0
            
 40 43  0  0  0  0            999 V2000
    4.2623   21.4202    3.1072 S   0  0  0  0  0  0  0  0  0  0  0  0
    2.4510   26.7659    8.0685 O   0  0  0  0  0  0  0  0  0  0  0  0
    1.8718   30.6270    6.4907 N   0  0  0  0  0  0  0  0  0  0  0  0
    0.7003   31.1300    6.9146 N   0  0  0  0  0  0  0  0  0  0  0  0
    3.0550   28.5963    6.8339 N   0  0  0  0  0  0  0  0  0  0  0  0
    4.8263   20.9454    1.5746 C   0  0  0  0  0  0  0  0  0  0  0  0
    5.5401   21.9209    0.9513 C   0  0  0  0  0  0  0  0  0  0  0  0
    5.6325   23.1220    1.7525 C   0  0  0  0  0  0  0  0  0  0  0  0
    4.4694   24.5327    6.3582 C   0  0  0  0  0  0  0  0  0  0  0  0
    5.0196   26.3078    4.7757 C   0  0  0  0  0  0  0  0  0  0  0  0
    4.5431   23.5996    5.3175 C   0  0  0  0  0  0  0  0  0  0  0  0
    5.0858   25.3817    3.7217 C   0  0  0  0  0  0  0  0  0  0  0  0
   -1.8040   30.1138    9.5462 C   0  0  0  0  0  0  0  0  0  0  0  0
   -2.4518   29.5567    8.3087 C   0  0  0  0  0  0  0  0  0  0  0  0
    4.7263   26.8582    7.1942 C   0  0  0  0  0  0  0  0  0  0  0  0
    0.7006   29.0353    7.6699 C   0  0  0  0  0  0  0  0  0  0  0  0
    3.2966   27.3747    7.4266 C   0  0  0  0  0  0  0  0  0  0  0  0
    4.9807   22.9987    2.9425 C   0  0  0  0  0  0  0  0  0  0  0  0
    1.9052   29.3438    6.9402 C   0  0  0  0  0  0  0  0  0  0  0  0
    4.7286   25.8951    6.0770 C   0  0  0  0  0  0  0  0  0  0  0  0
   -0.0515   30.2091    7.6304 C   0  0  0  0  0  0  0  0  0  0  0  0
    4.8579   23.9961    3.9921 C   0  0  0  0  0  0  0  0  0  0  0  0
   -1.3511   30.5974    8.1793 C   0  0  0  0  0  0  0  0  0  0  0  0
    2.5733   31.0981    5.9560 H   0  0  0  0  0  0  0  0  0  0  0  0
    3.7887   28.9765    6.2707 H   0  0  0  0  0  0  0  0  0  0  0  0
    4.6519   20.0456    1.1747 H   0  0  0  0  0  0  0  0  0  0  0  0
    5.9525   21.8199    0.0459 H   0  0  0  0  0  0  0  0  0  0  0  0
    6.1187   23.9475    1.4659 H   0  0  0  0  0  0  0  0  0  0  0  0
    4.2372   24.2411    7.2861 H   0  0  0  0  0  0  0  0  0  0  0  0
    5.1833   27.2769    4.5911 H   0  0  0  0  0  0  0  0  0  0  0  0
    4.3704   22.6341    5.5121 H   0  0  0  0  0  0  0  0  0  0  0  0
    5.2901   25.6881    2.7920 H   0  0  0  0  0  0  0  0  0  0  0  0
   -1.2005   29.5368   10.0965 H   0  0  0  0  0  0  0  0  0  0  0  0
   -2.3188   30.7257   10.1466 H   0  0  0  0  0  0  0  0  0  0  0  0
   -3.3964   29.7989    8.0875 H   0  0  0  0  0  0  0  0  0  0  0  0
   -2.2781   28.6100    8.0374 H   0  0  0  0  0  0  0  0  0  0  0  0
    5.0561   26.4068    8.0234 H   0  0  0  0  0  0  0  0  0  0  0  0
    5.3260   27.6270    6.9721 H   0  0  0  0  0  0  0  0  0  0  0  0
    0.4578   28.1699    8.1080 H   0  0  0  0  0  0  0  0  0  0  0  0
   -1.6611   31.5146    7.9290 H   0  0  0  0  0  0  0  0  0  0  0  0
  1  6  1  0  0  0  0
  1 18  1  0  0  0  0
  2 17  2  0  0  0  0
  3  4  1  0  0  0  0
  3 19  1  0  0  0  0
  4 21  2  0  0  0  0
  5 17  1  0  0  0  0
  5 19  1  0  0  0  0
  6  7  2  0  0  0  0
  7  8  1  0  0  0  0
  8 18  2  0  0  0  0
  9 11  1  0  0  0  0
  9 20  2  0  0  0  0
 10 12  2  0  0  0  0
 10 20  1  0  0  0  0
 11 22  2  0  0  0  0
 12 22  1  0  0  0  0
 13 14  1  0  0  0  0
 13 23  1  0  0  0  0
 14 23  1  0  0  0  0
 15 17  1  0  0  0  0
 15 20  1  0  0  0  0
 16 19  2  0  0  0  0
 16 21  1  0  0  0  0
 18 22  1  0  0  0  0
 21 23  1  0  0  0  0
  3 24  1  0  0  0  0
  5 25  1  0  0  0  0
  6 26  1  0  0  0  0
  7 27  1  0  0  0  0
  8 28  1  0  0  0  0
  9 29  1  0  0  0  0
 10 30  1  0  0  0  0
 11 31  1  0  0  0  0
 12 32  1  0  0  0  0
 13 33  1  0  0  0  0
 13 34  1  0  0  0  0
 14 35  1  0  0  0  0
 14 36  1  0  0  0  0
 15 37  1  0  0  0  0
 15 38  1  0  0  0  0
 16 39  1  0  0  0  0
 23 40  1  0  0  0  0
M  END
$$$$
