16K_A_301
          05071912473D 1   1.00000     0.00000     0
            
 36 38  0  0  0  0            999 V2000
   -0.0070   27.2762   10.1627 S   0  0  0  0  0  0  0  0  0  0  0  0
    1.0793   24.2001    8.2655 O   0  5  0  0  0  0  0  0  0  0  0  0
    2.7759   23.0390    8.7856 O   0  0  0  0  0  0  0  0  0  0  0  0
    1.9267   30.6172    6.6973 N   0  0  0  0  0  0  0  0  0  0  0  0
   -2.3797   27.9936   10.9170 N   0  0  0  0  0  0  0  0  0  0  0  0
    3.1380   28.6262    6.5295 N   0  0  0  0  0  0  0  0  0  0  0  0
    1.1700   28.6724    8.0056 N   0  0  0  0  0  0  0  0  0  0  0  0
    2.2765   24.0013    8.2443 N   0  3  0  0  0  0  0  0  0  0  0  0
   -1.5503   25.9670   12.0703 C   0  0  0  0  0  0  0  0  0  0  0  0
   -2.9230   30.0328    9.7401 C   0  0  0  0  0  0  0  0  0  0  0  0
    0.9072   31.3408    7.2544 C   0  0  0  0  0  0  0  0  0  0  0  0
    5.1502   25.5114    6.2260 C   0  0  0  0  0  0  0  0  0  0  0  0
    4.7549   26.8566    6.1408 C   0  0  0  0  0  0  0  0  0  0  0  0
   -0.0164   30.8057    8.1952 C   0  0  0  0  0  0  0  0  0  0  0  0
    4.3544   24.5546    6.9117 C   0  0  0  0  0  0  0  0  0  0  0  0
    2.7432   26.3255    7.4677 C   0  0  0  0  0  0  0  0  0  0  0  0
   -1.4237   27.0867   11.0945 C   0  0  0  0  0  0  0  0  0  0  0  0
    2.0302   29.2777    7.0979 C   0  0  0  0  0  0  0  0  0  0  0  0
   -0.6975   28.6927    9.4475 C   0  0  0  0  0  0  0  0  0  0  0  0
    3.5311   27.2781    6.7538 C   0  0  0  0  0  0  0  0  0  0  0  0
   -1.9594   28.9333    9.9715 C   0  0  0  0  0  0  0  0  0  0  0  0
    0.1618   29.4560    8.5506 C   0  0  0  0  0  0  0  0  0  0  0  0
    3.1606   24.9911    7.5236 C   0  0  0  0  0  0  0  0  0  0  0  0
    3.7057   29.1636    5.9059 H   0  0  0  0  0  0  0  0  0  0  0  0
   -2.4420   26.0163   12.5204 H   0  0  0  0  0  0  0  0  0  0  0  0
   -1.4676   25.0944   11.5890 H   0  0  0  0  0  0  0  0  0  0  0  0
   -0.8263   26.0392   12.7563 H   0  0  0  0  0  0  0  0  0  0  0  0
   -2.5539   30.6608    9.0551 H   0  0  0  0  0  0  0  0  0  0  0  0
   -3.7887   29.6540    9.4129 H   0  0  0  0  0  0  0  0  0  0  0  0
   -3.0774   30.5263   10.5960 H   0  0  0  0  0  0  0  0  0  0  0  0
    0.8059   32.2986    6.9854 H   0  0  0  0  0  0  0  0  0  0  0  0
    6.0060   25.2223    5.7970 H   0  0  0  0  0  0  0  0  0  0  0  0
    5.3259   27.5176    5.6539 H   0  0  0  0  0  0  0  0  0  0  0  0
   -0.7532   31.3595    8.5832 H   0  0  0  0  0  0  0  0  0  0  0  0
    4.6336   23.5955    6.9592 H   0  0  0  0  0  0  0  0  0  0  0  0
    1.9000   26.6095    7.9241 H   0  0  0  0  0  0  0  0  0  0  0  0
  1 17  1  0  0  0  0
  1 19  1  0  0  0  0
  2  8  1  0  0  0  0
  3  8  2  0  0  0  0
  4 11  1  0  0  0  0
  4 18  2  0  0  0  0
  5 17  2  0  0  0  0
  5 21  1  0  0  0  0
  6 18  1  0  0  0  0
  6 20  1  0  0  0  0
  7 18  1  0  0  0  0
  7 22  2  0  0  0  0
  8 23  1  0  0  0  0
  9 17  1  0  0  0  0
 10 21  1  0  0  0  0
 11 14  2  0  0  0  0
 12 13  2  0  0  0  0
 12 15  1  0  0  0  0
 13 20  1  0  0  0  0
 14 22  1  0  0  0  0
 15 23  2  0  0  0  0
 16 20  2  0  0  0  0
 16 23  1  0  0  0  0
 19 21  2  0  0  0  0
 19 22  1  0  0  0  0
  6 24  1  0  0  0  0
  9 25  1  0  0  0  0
  9 26  1  0  0  0  0
  9 27  1  0  0  0  0
 10 28  1  0  0  0  0
 10 29  1  0  0  0  0
 10 30  1  0  0  0  0
 11 31  1  0  0  0  0
 12 32  1  0  0  0  0
 13 33  1  0  0  0  0
 14 34  1  0  0  0  0
 15 35  1  0  0  0  0
 16 36  1  0  0  0  0
M  CHG  2   2  -1   8   1
M  END
$$$$
