0S0_A_301
          05071912473D 1   1.00000     0.00000     0
            
 30 31  0  0  0  0            999 V2000
    6.8045   23.6266    7.5225 S   0  0  0  0  0  0  0  0  0  0  0  0
    6.3409   22.5267    8.3238 O   0  0  0  0  0  0  0  0  0  0  0  0
    7.8567   24.2012    8.4060 O   0  0  0  0  0  0  0  0  0  0  0  0
   -1.7373   32.0573    8.6015 O   0  0  0  0  0  0  0  0  0  0  0  0
    1.8515   30.4732    6.2957 O   0  0  0  0  0  0  0  0  0  0  0  0
    7.3314   23.1204    6.0936 N   0  0  0  0  0  0  0  0  0  0  0  0
    2.6643   27.8436    6.7227 N   0  0  0  0  0  0  0  0  0  0  0  0
    1.7136   27.8390    7.4930 N   0  0  0  0  0  0  0  0  0  0  0  0
    0.1191   31.2102    7.4220 N   0  0  0  0  0  0  0  0  0  0  0  0
   -1.0814   29.8023    8.9618 C   0  0  0  0  0  0  0  0  0  0  0  0
    4.4499   24.9322    8.1623 C   0  0  0  0  0  0  0  0  0  0  0  0
    5.7421   25.7901    6.2447 C   0  0  0  0  0  0  0  0  0  0  0  0
    3.5281   25.8923    7.9812 C   0  0  0  0  0  0  0  0  0  0  0  0
    4.8082   26.7594    6.0489 C   0  0  0  0  0  0  0  0  0  0  0  0
   -0.2127   28.7503    8.6820 C   0  0  0  0  0  0  0  0  0  0  0  0
   -0.9022   31.0293    8.3255 C   0  0  0  0  0  0  0  0  0  0  0  0
    5.5745   24.8735    7.2885 C   0  0  0  0  0  0  0  0  0  0  0  0
    0.9624   30.2334    7.1097 C   0  0  0  0  0  0  0  0  0  0  0  0
    3.6907   26.8128    6.9191 C   0  0  0  0  0  0  0  0  0  0  0  0
    0.8313   28.9580    7.7411 C   0  0  0  0  0  0  0  0  0  0  0  0
    7.6471   23.9038    5.5582 H   0  0  0  0  0  0  0  0  0  0  0  0
    8.0880   22.4799    6.2251 H   0  0  0  0  0  0  0  0  0  0  0  0
    2.7389   28.5207    5.9906 H   0  0  0  0  0  0  0  0  0  0  0  0
    0.2297   32.1040    6.9874 H   0  0  0  0  0  0  0  0  0  0  0  0
   -1.8285   29.6781    9.6148 H   0  0  0  0  0  0  0  0  0  0  0  0
    4.3483   24.2663    8.9014 H   0  0  0  0  0  0  0  0  0  0  0  0
    6.5421   25.7330    5.6475 H   0  0  0  0  0  0  0  0  0  0  0  0
    2.7369   25.9557    8.5894 H   0  0  0  0  0  0  0  0  0  0  0  0
    4.9081   27.4211    5.3059 H   0  0  0  0  0  0  0  0  0  0  0  0
   -0.3217   27.8654    9.1348 H   0  0  0  0  0  0  0  0  0  0  0  0
  1  2  2  0  0  0  0
  1  3  2  0  0  0  0
  1  6  1  0  0  0  0
  1 17  1  0  0  0  0
  4 16  2  0  0  0  0
  5 18  2  0  0  0  0
  7  8  1  0  0  0  0
  7 19  1  0  0  0  0
  8 20  2  0  0  0  0
  9 16  1  0  0  0  0
  9 18  1  0  0  0  0
 10 15  2  0  0  0  0
 10 16  1  0  0  0  0
 11 13  1  0  0  0  0
 11 17  2  0  0  0  0
 12 14  2  0  0  0  0
 12 17  1  0  0  0  0
 13 19  2  0  0  0  0
 14 19  1  0  0  0  0
 15 20  1  0  0  0  0
 18 20  1  0  0  0  0
  6 21  1  0  0  0  0
  6 22  1  0  0  0  0
  7 23  1  0  0  0  0
  9 24  1  0  0  0  0
 10 25  1  0  0  0  0
 11 26  1  0  0  0  0
 12 27  1  0  0  0  0
 13 28  1  0  0  0  0
 14 29  1  0  0  0  0
 15 30  1  0  0  0  0
M  END
$$$$
