4CK_A_300
          05071912473D 1   1.00000     0.00000     0
            
 33 35  0  0  0  0            999 V2000
    7.5335   24.0594    3.7195 O   0  0  0  0  0  0  0  0  0  0  0  0
    7.9176   23.2286    5.7276 O   0  0  0  0  0  0  0  0  0  0  0  0
    2.2893   26.8267    8.0248 O   0  0  0  0  0  0  0  0  0  0  0  0
    1.8154   30.6386    6.4672 N   0  0  0  0  0  0  0  0  0  0  0  0
    0.8017   31.2211    6.9128 N   0  0  0  0  0  0  0  0  0  0  0  0
    2.7625   28.4977    6.5542 N   0  0  0  0  0  0  0  0  0  0  0  0
    5.8377   24.7693    6.8787 C   0  0  0  0  0  0  0  0  0  0  0  0
    5.5879   25.8270    4.7114 C   0  0  0  0  0  0  0  0  0  0  0  0
    4.8194   25.5733    7.4027 C   0  0  0  0  0  0  0  0  0  0  0  0
    4.5589   26.6180    5.2261 C   0  0  0  0  0  0  0  0  0  0  0  0
   -1.7979   30.1696    9.5062 C   0  0  0  0  0  0  0  0  0  0  0  0
   -2.4533   29.7831    8.1768 C   0  0  0  0  0  0  0  0  0  0  0  0
    0.6471   29.1456    7.5910 C   0  0  0  0  0  0  0  0  0  0  0  0
    7.3256   24.0037    4.9508 C   0  0  0  0  0  0  0  0  0  0  0  0
    3.0050   27.3175    7.1512 C   0  0  0  0  0  0  0  0  0  0  0  0
    1.7713   29.3543    6.8616 C   0  0  0  0  0  0  0  0  0  0  0  0
    0.0486   30.3461    7.6057 C   0  0  0  0  0  0  0  0  0  0  0  0
    6.2232   24.9022    5.5385 C   0  0  0  0  0  0  0  0  0  0  0  0
    4.1681   26.5001    6.5730 C   0  0  0  0  0  0  0  0  0  0  0  0
   -1.2971   30.7967    8.1985 C   0  0  0  0  0  0  0  0  0  0  0  0
    7.0215   24.7066    3.1547 H   0  0  0  0  0  0  0  0  0  0  0  0
    2.5350   31.0568    5.9129 H   0  0  0  0  0  0  0  0  0  0  0  0
    3.3769   28.7640    5.8115 H   0  0  0  0  0  0  0  0  0  0  0  0
    6.2920   24.0971    7.4632 H   0  0  0  0  0  0  0  0  0  0  0  0
    5.8672   25.9233    3.7560 H   0  0  0  0  0  0  0  0  0  0  0  0
    4.5567   25.4882    8.3638 H   0  0  0  0  0  0  0  0  0  0  0  0
    4.0949   27.2748    4.6317 H   0  0  0  0  0  0  0  0  0  0  0  0
   -1.2279   29.5078    9.9931 H   0  0  0  0  0  0  0  0  0  0  0  0
   -2.3001   30.7271   10.1672 H   0  0  0  0  0  0  0  0  0  0  0  0
   -3.3826   30.0889    7.9699 H   0  0  0  0  0  0  0  0  0  0  0  0
   -2.3104   28.8696    7.7958 H   0  0  0  0  0  0  0  0  0  0  0  0
    0.3370   28.2961    8.0178 H   0  0  0  0  0  0  0  0  0  0  0  0
   -1.5473   31.7526    8.0450 H   0  0  0  0  0  0  0  0  0  0  0  0
  1 14  1  0  0  0  0
  2 14  2  0  0  0  0
  3 15  2  0  0  0  0
  4  5  1  0  0  0  0
  4 16  1  0  0  0  0
  5 17  2  0  0  0  0
  6 15  1  0  0  0  0
  6 16  1  0  0  0  0
  7  9  1  0  0  0  0
  7 18  2  0  0  0  0
  8 10  2  0  0  0  0
  8 18  1  0  0  0  0
  9 19  2  0  0  0  0
 10 19  1  0  0  0  0
 11 12  1  0  0  0  0
 11 20  1  0  0  0  0
 12 20  1  0  0  0  0
 13 16  2  0  0  0  0
 13 17  1  0  0  0  0
 14 18  1  0  0  0  0
 15 19  1  0  0  0  0
 17 20  1  0  0  0  0
  1 21  1  0  0  0  0
  4 22  1  0  0  0  0
  6 23  1  0  0  0  0
  7 24  1  0  0  0  0
  8 25  1  0  0  0  0
  9 26  1  0  0  0  0
 10 27  1  0  0  0  0
 11 28  1  0  0  0  0
 11 29  1  0  0  0  0
 12 30  1  0  0  0  0
 12 31  1  0  0  0  0
 13 32  1  0  0  0  0
 20 33  1  0  0  0  0
M  END
$$$$
