LS5_A_301
          05071912473D 1   1.00000     0.00000     0
            
 40 42  0  0  0  0            999 V2000
    6.8633   23.8399    7.1657 S   0  0  0  0  0  0  0  0  0  0  0  0
    7.6616   23.8382    5.8946 O   0  0  0  0  0  0  0  0  0  0  0  0
    7.6703   24.1883    8.3710 O   0  0  0  0  0  0  0  0  0  0  0  0
    1.9173   30.4915    6.1892 O   0  0  0  0  0  0  0  0  0  0  0  0
    4.5018   20.8693    6.7789 N   0  0  0  0  0  0  0  0  0  0  0  0
    5.2245   22.3720    5.2128 N   0  0  0  0  0  0  0  0  0  0  0  0
    6.0228   22.4851    7.4226 N   0  0  0  0  0  0  0  0  0  0  0  0
    2.7144   28.0039    6.9012 N   0  0  0  0  0  0  0  0  0  0  0  0
    0.0706   31.2600    7.3250 N   0  0  0  0  0  0  0  0  0  0  0  0
    1.5937   28.0349    7.6435 C   0  0  0  0  0  0  0  0  0  0  0  0
   -2.6697   30.4149    9.7486 C   0  0  0  0  0  0  0  0  0  0  0  0
   -2.2549   29.0896    9.9889 C   0  0  0  0  0  0  0  0  0  0  0  0
    4.7614   25.2089    8.1116 C   0  0  0  0  0  0  0  0  0  0  0  0
    5.5465   25.8821    5.8984 C   0  0  0  0  0  0  0  0  0  0  0  0
   -1.9000   31.2266    8.8891 C   0  0  0  0  0  0  0  0  0  0  0  0
   -1.1512   28.5412    9.3191 C   0  0  0  0  0  0  0  0  0  0  0  0
    3.7771   26.2141    8.0966 C   0  0  0  0  0  0  0  0  0  0  0  0
    4.5475   26.8665    5.8938 C   0  0  0  0  0  0  0  0  0  0  0  0
    5.2464   21.9255    6.4728 C   0  0  0  0  0  0  0  0  0  0  0  0
    5.6339   25.0501    7.0284 C   0  0  0  0  0  0  0  0  0  0  0  0
    0.9876   30.3446    6.9949 C   0  0  0  0  0  0  0  0  0  0  0  0
    3.6353   27.0214    6.9482 C   0  0  0  0  0  0  0  0  0  0  0  0
   -0.7964   30.6883    8.2222 C   0  0  0  0  0  0  0  0  0  0  0  0
    0.7227   29.1324    7.6370 C   0  0  0  0  0  0  0  0  0  0  0  0
   -0.3939   29.3641    8.4709 C   0  0  0  0  0  0  0  0  0  0  0  0
    4.4987   20.5136    7.7135 H   0  0  0  0  0  0  0  0  0  0  0  0
    3.9442   20.4297    6.0747 H   0  0  0  0  0  0  0  0  0  0  0  0
    5.7752   23.1655    4.9538 H   0  0  0  0  0  0  0  0  0  0  0  0
    6.0803   22.0451    8.3188 H   0  0  0  0  0  0  0  0  0  0  0  0
    2.8757   28.7629    6.2704 H   0  0  0  0  0  0  0  0  0  0  0  0
    0.0246   32.1970    6.9789 H   0  0  0  0  0  0  0  0  0  0  0  0
    1.3743   27.2478    8.2198 H   0  0  0  0  0  0  0  0  0  0  0  0
   -3.4969   30.7743   10.1806 H   0  0  0  0  0  0  0  0  0  0  0  0
   -2.7564   28.5301   10.6488 H   0  0  0  0  0  0  0  0  0  0  0  0
    4.8384   24.6025    8.9031 H   0  0  0  0  0  0  0  0  0  0  0  0
    6.1734   25.7759    5.1265 H   0  0  0  0  0  0  0  0  0  0  0  0
   -2.1442   32.1873    8.7570 H   0  0  0  0  0  0  0  0  0  0  0  0
   -0.9078   27.5794    9.4439 H   0  0  0  0  0  0  0  0  0  0  0  0
    3.1852   26.3547    8.8902 H   0  0  0  0  0  0  0  0  0  0  0  0
    4.4831   27.4820    5.1083 H   0  0  0  0  0  0  0  0  0  0  0  0
  1  2  2  0  0  0  0
  1  3  2  0  0  0  0
  1  7  1  0  0  0  0
  1 20  1  0  0  0  0
  4 21  2  0  0  0  0
  5 19  1  0  0  0  0
  6 19  2  0  0  0  0
  7 19  1  0  0  0  0
  8 10  1  0  0  0  0
  8 22  1  0  0  0  0
  9 21  1  0  0  0  0
  9 23  1  0  0  0  0
 10 24  2  0  0  0  0
 11 12  2  0  0  0  0
 11 15  1  0  0  0  0
 12 16  1  0  0  0  0
 13 17  1  0  0  0  0
 13 20  2  0  0  0  0
 14 18  2  0  0  0  0
 14 20  1  0  0  0  0
 15 23  2  0  0  0  0
 16 25  2  0  0  0  0
 17 22  2  0  0  0  0
 18 22  1  0  0  0  0
 21 24  1  0  0  0  0
 23 25  1  0  0  0  0
 24 25  1  0  0  0  0
  5 26  1  0  0  0  0
  5 27  1  0  0  0  0
  6 28  1  0  0  0  0
  7 29  1  0  0  0  0
  8 30  1  0  0  0  0
  9 31  1  0  0  0  0
 10 32  1  0  0  0  0
 11 33  1  0  0  0  0
 12 34  1  0  0  0  0
 13 35  1  0  0  0  0
 14 36  1  0  0  0  0
 15 37  1  0  0  0  0
 16 38  1  0  0  0  0
 17 39  1  0  0  0  0
 18 40  1  0  0  0  0
M  END
$$$$
