42K_A_301
          05071912473D 1   1.00000     0.00000     0
            
 36 39  0  0  0  0            999 V2000
    6.6314   23.6374    7.5122 S   0  0  0  0  0  0  0  0  0  0  0  0
    6.9842   23.1150    6.1610 O   0  0  0  0  0  0  0  0  0  0  0  0
    7.8275   24.2798    8.1050 O   0  0  0  0  0  0  0  0  0  0  0  0
    2.0410   30.4655    6.1314 O   0  0  0  0  0  0  0  0  0  0  0  0
    6.1612   22.4693    8.5307 N   0  0  0  0  0  0  0  0  0  0  0  0
   -1.8798   27.3910   10.8534 N   0  0  0  0  0  0  0  0  0  0  0  0
    2.7133   28.0095    7.0565 N   0  0  0  0  0  0  0  0  0  0  0  0
   -2.5992   28.4087   10.9332 N   0  0  0  0  0  0  0  0  0  0  0  0
   -0.9326   27.5220   10.0401 N   0  0  0  0  0  0  0  0  0  0  0  0
    1.6476   28.0777    7.7102 N   0  0  0  0  0  0  0  0  0  0  0  0
    0.1885   31.2507    7.2209 N   0  0  0  0  0  0  0  0  0  0  0  0
    4.4020   25.0049    8.3298 C   0  0  0  0  0  0  0  0  0  0  0  0
    5.5396   25.8037    6.3339 C   0  0  0  0  0  0  0  0  0  0  0  0
    3.4765   26.0508    8.2195 C   0  0  0  0  0  0  0  0  0  0  0  0
    4.6185   26.8457    6.2311 C   0  0  0  0  0  0  0  0  0  0  0  0
   -2.5426   30.6086    9.7217 C   0  0  0  0  0  0  0  0  0  0  0  0
   -1.7961   31.3218    8.7544 C   0  0  0  0  0  0  0  0  0  0  0  0
    5.4283   24.8925    7.3877 C   0  0  0  0  0  0  0  0  0  0  0  0
    1.0729   30.3032    6.8976 C   0  0  0  0  0  0  0  0  0  0  0  0
    3.5628   26.9579    7.1473 C   0  0  0  0  0  0  0  0  0  0  0  0
   -2.1552   29.3090   10.0393 C   0  0  0  0  0  0  0  0  0  0  0  0
   -0.6754   30.7415    8.1257 C   0  0  0  0  0  0  0  0  0  0  0  0
    0.8240   29.1568    7.6508 C   0  0  0  0  0  0  0  0  0  0  0  0
   -1.0058   28.7454    9.4719 C   0  0  0  0  0  0  0  0  0  0  0  0
   -0.2893   29.4316    8.4597 C   0  0  0  0  0  0  0  0  0  0  0  0
    5.9371   22.8714    9.4184 H   0  0  0  0  0  0  0  0  0  0  0  0
    5.3546   22.0088    8.1601 H   0  0  0  0  0  0  0  0  0  0  0  0
    2.9473   28.7626    6.4416 H   0  0  0  0  0  0  0  0  0  0  0  0
   -3.3725   28.5324   11.5551 H   0  0  0  0  0  0  0  0  0  0  0  0
    0.1692   32.1809    6.8545 H   0  0  0  0  0  0  0  0  0  0  0  0
    4.3290   24.3439    9.0767 H   0  0  0  0  0  0  0  0  0  0  0  0
    6.2725   25.7094    5.6602 H   0  0  0  0  0  0  0  0  0  0  0  0
    2.7540   26.1527    8.9033 H   0  0  0  0  0  0  0  0  0  0  0  0
    4.7117   27.5189    5.4975 H   0  0  0  0  0  0  0  0  0  0  0  0
   -3.3324   31.0291   10.1683 H   0  0  0  0  0  0  0  0  0  0  0  0
   -2.0680   32.2532    8.5125 H   0  0  0  0  0  0  0  0  0  0  0  0
  1  2  2  0  0  0  0
  1  3  2  0  0  0  0
  1  5  1  0  0  0  0
  1 18  1  0  0  0  0
  4 19  2  0  0  0  0
  6  8  1  0  0  0  0
  6  9  2  0  0  0  0
  7 10  1  0  0  0  0
  7 20  1  0  0  0  0
  8 21  1  0  0  0  0
  9 24  1  0  0  0  0
 10 23  2  0  0  0  0
 11 19  1  0  0  0  0
 11 22  1  0  0  0  0
 12 14  1  0  0  0  0
 12 18  2  0  0  0  0
 13 15  2  0  0  0  0
 13 18  1  0  0  0  0
 14 20  2  0  0  0  0
 15 20  1  0  0  0  0
 16 17  1  0  0  0  0
 16 21  2  0  0  0  0
 17 22  2  0  0  0  0
 19 23  1  0  0  0  0
 21 24  1  0  0  0  0
 22 25  1  0  0  0  0
 23 25  1  0  0  0  0
 24 25  2  0  0  0  0
  5 26  1  0  0  0  0
  5 27  1  0  0  0  0
  7 28  1  0  0  0  0
  8 29  1  0  0  0  0
 11 30  1  0  0  0  0
 12 31  1  0  0  0  0
 13 32  1  0  0  0  0
 14 33  1  0  0  0  0
 15 34  1  0  0  0  0
 16 35  1  0  0  0  0
 17 36  1  0  0  0  0
M  END
$$$$
