60K_A_303
          05071912473D 1   1.00000     0.00000     0
            
 37 39  0  0  0  0            999 V2000
    6.7732   23.8405    7.5552 S   0  0  0  0  0  0  0  0  0  0  0  0
    7.0961   23.2956    6.2695 O   0  0  0  0  0  0  0  0  0  0  0  0
    7.8194   24.4970    8.2519 O   0  0  0  0  0  0  0  0  0  0  0  0
   -4.2313   28.8876   11.3549 O   0  0  0  0  0  0  0  0  0  0  0  0
    1.9994   30.5492    6.1599 O   0  0  0  0  0  0  0  0  0  0  0  0
   -2.7653   27.2220   11.1480 O   0  0  0  0  0  0  0  0  0  0  0  0
    6.2518   22.6255    8.4715 N   0  0  0  0  0  0  0  0  0  0  0  0
    1.5279   28.0804    7.8163 N   0  0  0  0  0  0  0  0  0  0  0  0
    2.6748   28.0507    7.0469 N   0  0  0  0  0  0  0  0  0  0  0  0
    0.0917   31.2631    7.2857 N   0  0  0  0  0  0  0  0  0  0  0  0
    5.5703   25.9446    6.3589 C   0  0  0  0  0  0  0  0  0  0  0  0
    4.4102   25.0388    8.2558 C   0  0  0  0  0  0  0  0  0  0  0  0
    4.6437   26.9579    6.2794 C   0  0  0  0  0  0  0  0  0  0  0  0
    3.4976   26.0727    8.1870 C   0  0  0  0  0  0  0  0  0  0  0  0
   -1.9341   31.2902    8.7801 C   0  0  0  0  0  0  0  0  0  0  0  0
   -2.6981   30.5181    9.6395 C   0  0  0  0  0  0  0  0  0  0  0  0
   -1.2112   28.6371    9.3660 C   0  0  0  0  0  0  0  0  0  0  0  0
   -3.1924   28.4057   10.8899 C   0  0  0  0  0  0  0  0  0  0  0  0
    5.4635   24.9990    7.3580 C   0  0  0  0  0  0  0  0  0  0  0  0
    1.0682   30.3780    6.9519 C   0  0  0  0  0  0  0  0  0  0  0  0
    3.6120   27.0416    7.2000 C   0  0  0  0  0  0  0  0  0  0  0  0
   -0.8146   30.7119    8.1956 C   0  0  0  0  0  0  0  0  0  0  0  0
    0.7997   29.1403    7.7497 C   0  0  0  0  0  0  0  0  0  0  0  0
   -2.3555   29.1996    9.9343 C   0  0  0  0  0  0  0  0  0  0  0  0
   -0.4279   29.3915    8.4909 C   0  0  0  0  0  0  0  0  0  0  0  0
   -3.3304   26.7105   11.7845 H   0  0  0  0  0  0  0  0  0  0  0  0
    5.3677   22.1399    8.3632 H   0  0  0  0  0  0  0  0  0  0  0  0
    6.7711   22.2222    9.2450 H   0  0  0  0  0  0  0  0  0  0  0  0
    2.9082   28.7525    6.3522 H   0  0  0  0  0  0  0  0  0  0  0  0
    0.0179   32.2131    6.9373 H   0  0  0  0  0  0  0  0  0  0  0  0
    6.3638   25.8846    5.6157 H   0  0  0  0  0  0  0  0  0  0  0  0
    4.2715   24.2450    8.9870 H   0  0  0  0  0  0  0  0  0  0  0  0
    4.7002   27.6379    5.4316 H   0  0  0  0  0  0  0  0  0  0  0  0
    2.7097   26.0909    8.9390 H   0  0  0  0  0  0  0  0  0  0  0  0
   -2.1557   32.3448    8.6354 H   0  0  0  0  0  0  0  0  0  0  0  0
   -3.5847   30.9679   10.0845 H   0  0  0  0  0  0  0  0  0  0  0  0
   -0.8732   27.6148    9.5251 H   0  0  0  0  0  0  0  0  0  0  0  0
  1  2  2  0  0  0  0
  1  3  2  0  0  0  0
  1  7  1  0  0  0  0
  1 19  1  0  0  0  0
  4 18  2  0  0  0  0
  5 20  2  0  0  0  0
  6 18  1  0  0  0  0
  6 26  1  0  0  0  0
  7 27  1  0  0  0  0
  7 28  1  0  0  0  0
  8  9  1  0  0  0  0
  8 23  2  0  0  0  0
  9 21  1  0  0  0  0
  9 29  1  0  0  0  0
 10 20  1  0  0  0  0
 10 22  1  0  0  0  0
 10 30  1  0  0  0  0
 11 13  1  0  0  0  0
 11 19  2  0  0  0  0
 11 31  1  0  0  0  0
 12 14  2  0  0  0  0
 12 19  1  0  0  0  0
 12 32  1  0  0  0  0
 13 21  2  0  0  0  0
 13 33  1  0  0  0  0
 14 21  1  0  0  0  0
 14 34  1  0  0  0  0
 15 16  1  0  0  0  0
 15 22  2  0  0  0  0
 15 35  1  0  0  0  0
 16 24  2  0  0  0  0
 16 36  1  0  0  0  0
 17 24  1  0  0  0  0
 17 25  2  0  0  0  0
 17 37  1  0  0  0  0
 18 24  1  0  0  0  0
 20 23  1  0  0  0  0
 22 25  1  0  0  0  0
 23 25  1  0  0  0  0
M  END
$$$$
