62K_A_301
          05071912473D 1   1.00000     0.00000     0
            
 49 51  0  0  0  0            999 V2000
    6.8999   23.7859    7.5306 S   0  0  0  0  0  0  0  0  0  0  0  0
    7.3607   23.3283    6.1920 O   0  0  0  0  0  0  0  0  0  0  0  0
    8.0335   24.4406    8.2095 O   0  0  0  0  0  0  0  0  0  0  0  0
   -4.1733   28.3419   11.1272 O   0  0  0  0  0  0  0  0  0  0  0  0
    2.0572   30.5065    6.2464 O   0  0  0  0  0  0  0  0  0  0  0  0
   -2.5555   26.7664   10.9456 O   0  0  0  0  0  0  0  0  0  0  0  0
    6.3623   22.5428    8.4094 N   0  0  0  0  0  0  0  0  0  0  0  0
    2.7896   27.9841    7.0425 N   0  0  0  0  0  0  0  0  0  0  0  0
    1.6921   28.0129    7.6546 N   0  0  0  0  0  0  0  0  0  0  0  0
    0.1518   31.1743    7.3250 N   0  0  0  0  0  0  0  0  0  0  0  0
   -1.1173   24.9004   12.5984 C   0  0  0  0  0  0  0  0  0  0  0  0
   -2.1642   23.9728   10.5125 C   0  0  0  0  0  0  0  0  0  0  0  0
   -3.3288   25.8289   11.7507 C   0  0  0  0  0  0  0  0  0  0  0  0
    5.6961   25.8895    6.2958 C   0  0  0  0  0  0  0  0  0  0  0  0
    4.6202   25.0688    8.3086 C   0  0  0  0  0  0  0  0  0  0  0  0
    4.7220   26.9010    6.1992 C   0  0  0  0  0  0  0  0  0  0  0  0
    3.6608   26.0781    8.2008 C   0  0  0  0  0  0  0  0  0  0  0  0
   -1.9174   31.0618    8.7325 C   0  0  0  0  0  0  0  0  0  0  0  0
   -2.6508   30.2559    9.6151 C   0  0  0  0  0  0  0  0  0  0  0  0
   -1.0467   28.4417    9.2594 C   0  0  0  0  0  0  0  0  0  0  0  0
   -3.0605   28.0032   10.7235 C   0  0  0  0  0  0  0  0  0  0  0  0
    5.6412   24.9821    7.3592 C   0  0  0  0  0  0  0  0  0  0  0  0
    1.0907   30.2818    6.9817 C   0  0  0  0  0  0  0  0  0  0  0  0
   -2.4507   24.5741   11.8854 C   0  0  0  0  0  0  0  0  0  0  0  0
    3.6674   26.9618    7.1023 C   0  0  0  0  0  0  0  0  0  0  0  0
   -0.7303   30.5755    8.1555 C   0  0  0  0  0  0  0  0  0  0  0  0
    0.8647   29.0792    7.6445 C   0  0  0  0  0  0  0  0  0  0  0  0
   -2.2288   28.9340    9.8375 C   0  0  0  0  0  0  0  0  0  0  0  0
   -0.2913   29.2754    8.4164 C   0  0  0  0  0  0  0  0  0  0  0  0
    6.0584   22.8731    9.3031 H   0  0  0  0  0  0  0  0  0  0  0  0
    5.5961   22.1072    7.9369 H   0  0  0  0  0  0  0  0  0  0  0  0
    3.0276   28.7712    6.4734 H   0  0  0  0  0  0  0  0  0  0  0  0
    0.1107   32.1251    7.0178 H   0  0  0  0  0  0  0  0  0  0  0  0
   -1.3079   25.2942   13.4976 H   0  0  0  0  0  0  0  0  0  0  0  0
   -0.5840   24.0616   12.7081 H   0  0  0  0  0  0  0  0  0  0  0  0
   -0.5981   25.5563   12.0505 H   0  0  0  0  0  0  0  0  0  0  0  0
   -3.0276   23.7629   10.0538 H   0  0  0  0  0  0  0  0  0  0  0  0
   -1.6456   24.6281    9.9632 H   0  0  0  0  0  0  0  0  0  0  0  0
   -1.6316   23.1334   10.6208 H   0  0  0  0  0  0  0  0  0  0  0  0
   -4.1897   25.6047   11.2940 H   0  0  0  0  0  0  0  0  0  0  0  0
   -3.5208   26.2185   12.6514 H   0  0  0  0  0  0  0  0  0  0  0  0
    6.4210   25.8201    5.6104 H   0  0  0  0  0  0  0  0  0  0  0  0
    4.5765   24.4120    9.0614 H   0  0  0  0  0  0  0  0  0  0  0  0
    4.7897   27.5840    5.4719 H   0  0  0  0  0  0  0  0  0  0  0  0
    2.9622   26.1749    8.9097 H   0  0  0  0  0  0  0  0  0  0  0  0
   -2.2386   31.9830    8.5131 H   0  0  0  0  0  0  0  0  0  0  0  0
   -3.4606   30.6158   10.0785 H   0  0  0  0  0  0  0  0  0  0  0  0
   -0.7453   27.5066    9.4459 H   0  0  0  0  0  0  0  0  0  0  0  0
   -2.9453   23.8977   12.4312 H   0  0  0  0  0  0  0  0  0  0  0  0
  1  2  2  0  0  0  0
  1  3  2  0  0  0  0
  1  7  1  0  0  0  0
  1 22  1  0  0  0  0
  4 21  2  0  0  0  0
  5 23  2  0  0  0  0
  6 13  1  0  0  0  0
  6 21  1  0  0  0  0
  8  9  1  0  0  0  0
  8 25  1  0  0  0  0
  9 27  2  0  0  0  0
 10 23  1  0  0  0  0
 10 26  1  0  0  0  0
 11 24  1  0  0  0  0
 12 24  1  0  0  0  0
 13 24  1  0  0  0  0
 14 16  1  0  0  0  0
 14 22  2  0  0  0  0
 15 17  2  0  0  0  0
 15 22  1  0  0  0  0
 16 25  2  0  0  0  0
 17 25  1  0  0  0  0
 18 19  1  0  0  0  0
 18 26  2  0  0  0  0
 19 28  2  0  0  0  0
 20 28  1  0  0  0  0
 20 29  2  0  0  0  0
 21 28  1  0  0  0  0
 23 27  1  0  0  0  0
 26 29  1  0  0  0  0
 27 29  1  0  0  0  0
  7 30  1  0  0  0  0
  7 31  1  0  0  0  0
  8 32  1  0  0  0  0
 10 33  1  0  0  0  0
 11 34  1  0  0  0  0
 11 35  1  0  0  0  0
 11 36  1  0  0  0  0
 12 37  1  0  0  0  0
 12 38  1  0  0  0  0
 12 39  1  0  0  0  0
 13 40  1  0  0  0  0
 13 41  1  0  0  0  0
 14 42  1  0  0  0  0
 15 43  1  0  0  0  0
 16 44  1  0  0  0  0
 17 45  1  0  0  0  0
 18 46  1  0  0  0  0
 19 47  1  0  0  0  0
 20 48  1  0  0  0  0
 24 49  1  0  0  0  0
M  END
$$$$
