3QS_A_302
          05071912473D 1   1.00000     0.00000     0
            
 57 61  0  0  0  0            999 V2000
    0.2967   22.1206   10.5050 O   0  0  0  0  0  0  0  0  0  0  0  0
    4.7881   24.9274    7.3493 N   0  0  0  0  0  0  0  0  0  0  0  0
    1.7019   30.4051    6.6102 N   0  0  0  0  0  0  0  0  0  0  0  0
    3.1838   26.5529    7.8010 N   0  0  0  0  0  0  0  0  0  0  0  0
    2.9851   28.4800    6.3513 N   0  0  0  0  0  0  0  0  0  0  0  0
    3.4277   24.6522    9.2173 N   0  0  0  0  0  0  0  0  0  0  0  0
   -1.0054   28.8762    9.3098 N   0  0  0  0  0  0  0  0  0  0  0  0
   -0.1920   22.0973   11.8500 C   0  0  0  0  0  0  0  0  0  0  0  0
    5.2176   25.5871    6.2709 C   0  0  0  0  0  0  0  0  0  0  0  0
    0.7010   31.1202    7.1161 C   0  0  0  0  0  0  0  0  0  0  0  0
    3.6854   23.1872    9.1858 C   0  0  0  0  0  0  0  0  0  0  0  0
    2.3664   25.1957   10.0983 C   0  0  0  0  0  0  0  0  0  0  0  0
   -1.7976   29.9861    9.5155 C   0  0  0  0  0  0  0  0  0  0  0  0
   -1.2181   26.6914   12.2994 C   0  0  0  0  0  0  0  0  0  0  0  0
   -2.3627   26.1009   11.4247 C   0  0  0  0  0  0  0  0  0  0  0  0
    4.6085   26.7886    5.9278 C   0  0  0  0  0  0  0  0  0  0  0  0
    2.3978   22.3432    9.2543 C   0  0  0  0  0  0  0  0  0  0  0  0
    1.0933   24.3590    9.9630 C   0  0  0  0  0  0  0  0  0  0  0  0
   -1.3671   31.0127    8.7703 C   0  0  0  0  0  0  0  0  0  0  0  0
   -0.4446   27.6587   11.3584 C   0  0  0  0  0  0  0  0  0  0  0  0
   -2.5777   27.1917   10.3494 C   0  0  0  0  0  0  0  0  0  0  0  0
    1.0480   28.4905    7.8562 C   0  0  0  0  0  0  0  0  0  0  0  0
    3.7979   25.3985    8.1032 C   0  0  0  0  0  0  0  0  0  0  0  0
    1.8985   29.1294    6.9501 C   0  0  0  0  0  0  0  0  0  0  0  0
    3.5647   27.2693    6.7290 C   0  0  0  0  0  0  0  0  0  0  0  0
    1.4727   22.9187   10.3391 C   0  0  0  0  0  0  0  0  0  0  0  0
   -1.1387   27.5699    9.9716 C   0  0  0  0  0  0  0  0  0  0  0  0
   -0.0095   29.1922    8.4134 C   0  0  0  0  0  0  0  0  0  0  0  0
   -0.1931   30.5440    8.0277 C   0  0  0  0  0  0  0  0  0  0  0  0
    3.3927   28.9376    5.5611 H   0  0  0  0  0  0  0  0  0  0  0  0
   -1.0108   21.5252   11.8973 H   0  0  0  0  0  0  0  0  0  0  0  0
    0.5116   21.7229   12.4539 H   0  0  0  0  0  0  0  0  0  0  0  0
   -0.4183   23.0276   12.1385 H   0  0  0  0  0  0  0  0  0  0  0  0
    5.9666   25.2221    5.7179 H   0  0  0  0  0  0  0  0  0  0  0  0
    0.5859   32.0756    6.8438 H   0  0  0  0  0  0  0  0  0  0  0  0
    4.2634   22.9492    9.9664 H   0  0  0  0  0  0  0  0  0  0  0  0
    4.1650   22.9669    8.3364 H   0  0  0  0  0  0  0  0  0  0  0  0
    2.1706   26.1408    9.8365 H   0  0  0  0  0  0  0  0  0  0  0  0
    2.6794   25.1709   11.0477 H   0  0  0  0  0  0  0  0  0  0  0  0
   -2.5828   30.0198   10.1338 H   0  0  0  0  0  0  0  0  0  0  0  0
   -0.6154   25.9635   12.6264 H   0  0  0  0  0  0  0  0  0  0  0  0
   -1.5947   27.1887   13.0809 H   0  0  0  0  0  0  0  0  0  0  0  0
   -3.1923   25.9608   11.9653 H   0  0  0  0  0  0  0  0  0  0  0  0
   -2.0862   25.2350   11.0079 H   0  0  0  0  0  0  0  0  0  0  0  0
    4.9101   27.3007    5.1235 H   0  0  0  0  0  0  0  0  0  0  0  0
    2.6298   21.3971    9.4801 H   0  0  0  0  0  0  0  0  0  0  0  0
    1.9328   22.3703    8.3694 H   0  0  0  0  0  0  0  0  0  0  0  0
    0.7568   24.3926    9.0219 H   0  0  0  0  0  0  0  0  0  0  0  0
    0.3871   24.7026   10.5820 H   0  0  0  0  0  0  0  0  0  0  0  0
   -1.7706   31.9267    8.7284 H   0  0  0  0  0  0  0  0  0  0  0  0
    0.5123   27.3781   11.2848 H   0  0  0  0  0  0  0  0  0  0  0  0
   -0.4917   28.5939   11.7095 H   0  0  0  0  0  0  0  0  0  0  0  0
   -3.0716   27.9764   10.7239 H   0  0  0  0  0  0  0  0  0  0  0  0
   -3.0754   26.8297    9.5613 H   0  0  0  0  0  0  0  0  0  0  0  0
    1.2013   27.5332    8.1011 H   0  0  0  0  0  0  0  0  0  0  0  0
    1.9708   22.9364   11.2061 H   0  0  0  0  0  0  0  0  0  0  0  0
   -0.7214   26.8509    9.4158 H   0  0  0  0  0  0  0  0  0  0  0  0
  1  8  1  0  0  0  0
  1 26  1  0  0  0  0
  2  9  2  0  0  0  0
  2 23  1  0  0  0  0
  3 10  1  0  0  0  0
  3 24  2  0  0  0  0
  4 23  2  0  0  0  0
  4 25  1  0  0  0  0
  5 24  1  0  0  0  0
  5 25  1  0  0  0  0
  6 11  1  0  0  0  0
  6 12  1  0  0  0  0
  6 23  1  0  0  0  0
  7 13  1  0  0  0  0
  7 27  1  0  0  0  0
  7 28  1  0  0  0  0
  9 16  1  0  0  0  0
 10 29  2  0  0  0  0
 11 17  1  0  0  0  0
 12 18  1  0  0  0  0
 13 19  2  0  0  0  0
 14 15  1  0  0  0  0
 14 20  1  0  0  0  0
 15 21  1  0  0  0  0
 16 25  2  0  0  0  0
 17 26  1  0  0  0  0
 18 26  1  0  0  0  0
 19 29  1  0  0  0  0
 20 27  1  0  0  0  0
 21 27  1  0  0  0  0
 22 24  1  0  0  0  0
 22 28  2  0  0  0  0
 28 29  1  0  0  0  0
  5 30  1  0  0  0  0
  8 31  1  0  0  0  0
  8 32  1  0  0  0  0
  8 33  1  0  0  0  0
  9 34  1  0  0  0  0
 10 35  1  0  0  0  0
 11 36  1  0  0  0  0
 11 37  1  0  0  0  0
 12 38  1  0  0  0  0
 12 39  1  0  0  0  0
 13 40  1  0  0  0  0
 14 41  1  0  0  0  0
 14 42  1  0  0  0  0
 15 43  1  0  0  0  0
 15 44  1  0  0  0  0
 16 45  1  0  0  0  0
 17 46  1  0  0  0  0
 17 47  1  0  0  0  0
 18 48  1  0  0  0  0
 18 49  1  0  0  0  0
 19 50  1  0  0  0  0
 20 51  1  0  0  0  0
 20 52  1  0  0  0  0
 21 53  1  0  0  0  0
 21 54  1  0  0  0  0
 22 55  1  0  0  0  0
 26 56  1  0  0  0  0
 27 57  1  0  0  0  0
M  END
$$$$
