5JE_A_1295
          05071912473D 1   1.00000     0.00000     0
            
 22 24  0  0  0  0            999 V2000
    5.4887   25.3375    6.7142 N   0  0  0  0  0  0  0  0  0  0  0  0
    1.4946   27.4451    7.9777 N   0  0  0  0  0  0  0  0  0  0  0  0
    2.8082   28.7246    6.6408 N   0  0  0  0  0  0  0  0  0  0  0  0
    3.6424   26.5165    7.2652 N   0  0  0  0  0  0  0  0  0  0  0  0
    4.8055   26.4553    6.4903 C   0  0  0  0  0  0  0  0  0  0  0  0
    4.7347   24.6346    7.6736 C   0  0  0  0  0  0  0  0  0  0  0  0
    3.6083   25.3361    8.0235 C   0  0  0  0  0  0  0  0  0  0  0  0
   -0.7702   30.4257    7.9457 C   0  0  0  0  0  0  0  0  0  0  0  0
    0.0417   31.2073    7.1384 C   0  0  0  0  0  0  0  0  0  0  0  0
   -0.3907   29.1320    8.3013 C   0  0  0  0  0  0  0  0  0  0  0  0
    1.2574   30.7301    6.6524 C   0  0  0  0  0  0  0  0  0  0  0  0
    2.6622   27.5705    7.2756 C   0  0  0  0  0  0  0  0  0  0  0  0
    0.8108   28.6620    7.7958 C   0  0  0  0  0  0  0  0  0  0  0  0
    1.6380   29.4469    6.9822 C   0  0  0  0  0  0  0  0  0  0  0  0
    1.1906   26.6543    8.5090 H   0  0  0  0  0  0  0  0  0  0  0  0
    5.0884   27.1660    5.8463 H   0  0  0  0  0  0  0  0  0  0  0  0
    4.9865   23.7430    8.0498 H   0  0  0  0  0  0  0  0  0  0  0  0
    2.9078   25.0626    8.6827 H   0  0  0  0  0  0  0  0  0  0  0  0
   -1.6388   30.7942    8.2771 H   0  0  0  0  0  0  0  0  0  0  0  0
   -0.2512   32.1332    6.8998 H   0  0  0  0  0  0  0  0  0  0  0  0
   -0.9619   28.5668    8.8965 H   0  0  0  0  0  0  0  0  0  0  0  0
    1.8400   31.3050    6.0779 H   0  0  0  0  0  0  0  0  0  0  0  0
  1  5  2  0  0  0  0
  1  6  1  0  0  0  0
  2 12  1  0  0  0  0
  2 13  1  0  0  0  0
  3 12  2  0  0  0  0
  3 14  1  0  0  0  0
  4  5  1  0  0  0  0
  4  7  1  0  0  0  0
  4 12  1  0  0  0  0
  6  7  2  0  0  0  0
  8  9  2  0  0  0  0
  8 10  1  0  0  0  0
  9 11  1  0  0  0  0
 10 13  2  0  0  0  0
 11 14  2  0  0  0  0
 13 14  1  0  0  0  0
  2 15  1  0  0  0  0
  5 16  1  0  0  0  0
  6 17  1  0  0  0  0
  7 18  1  0  0  0  0
  8 19  1  0  0  0  0
  9 20  1  0  0  0  0
 10 21  1  0  0  0  0
 11 22  1  0  0  0  0
M  END
$$$$
