WY3_A_1299
          05071912473D 1   1.00000     0.00000     0
            
 34 36  0  0  0  0            999 V2000
   -3.9523   29.5573   10.5709 O   0  0  0  0  0  0  0  0  0  0  0  0
    1.2800   31.6042    6.5547 O   0  0  0  0  0  0  0  0  0  0  0  0
   -0.7598   23.2979   12.4088 O   0  0  0  0  0  0  0  0  0  0  0  0
   -2.2480   30.1685    9.2686 O   0  0  0  0  0  0  0  0  0  0  0  0
   -1.1020   25.3408   10.5913 N   0  0  0  0  0  0  0  0  0  0  0  0
   -1.3933   23.1015   11.0987 C   0  0  0  0  0  0  0  0  0  0  0  0
   -1.0281   24.5584   12.9503 C   0  0  0  0  0  0  0  0  0  0  0  0
   -0.6988   23.9955   10.1607 C   0  0  0  0  0  0  0  0  0  0  0  0
   -0.5869   25.6320   11.9081 C   0  0  0  0  0  0  0  0  0  0  0  0
   -0.5376   26.2720    9.6003 C   0  0  0  0  0  0  0  0  0  0  0  0
    1.2522   29.3585    7.2623 C   0  0  0  0  0  0  0  0  0  0  0  0
    0.6217   28.3470    7.9930 C   0  0  0  0  0  0  0  0  0  0  0  0
   -0.4924   30.9006    7.8791 C   0  0  0  0  0  0  0  0  0  0  0  0
   -2.3773   27.9297   10.1866 C   0  0  0  0  0  0  0  0  0  0  0  0
   -2.9052   29.2262   10.0202 C   0  0  0  0  0  0  0  0  0  0  0  0
    0.6763   30.6298    7.2245 C   0  0  0  0  0  0  0  0  0  0  0  0
   -1.0946   29.8723    8.6246 C   0  0  0  0  0  0  0  0  0  0  0  0
   -1.2030   27.5485    9.4820 C   0  0  0  0  0  0  0  0  0  0  0  0
   -0.5613   28.5797    8.7153 C   0  0  0  0  0  0  0  0  0  0  0  0
    0.8725   32.5169    6.5240 H   0  0  0  0  0  0  0  0  0  0  0  0
   -2.3641   23.3370   11.1457 H   0  0  0  0  0  0  0  0  0  0  0  0
   -1.2948   22.1503   10.8065 H   0  0  0  0  0  0  0  0  0  0  0  0
   -0.5153   24.6792   13.8003 H   0  0  0  0  0  0  0  0  0  0  0  0
   -2.0067   24.6471   13.1359 H   0  0  0  0  0  0  0  0  0  0  0  0
    0.2925   23.8822   10.2289 H   0  0  0  0  0  0  0  0  0  0  0  0
   -0.9904   23.8206    9.2203 H   0  0  0  0  0  0  0  0  0  0  0  0
   -0.9280   26.5258   12.1992 H   0  0  0  0  0  0  0  0  0  0  0  0
    0.4121   25.6533   11.8679 H   0  0  0  0  0  0  0  0  0  0  0  0
   -0.5713   25.8251    8.7064 H   0  0  0  0  0  0  0  0  0  0  0  0
    0.4149   26.4453    9.8507 H   0  0  0  0  0  0  0  0  0  0  0  0
    2.1046   29.1739    6.7732 H   0  0  0  0  0  0  0  0  0  0  0  0
    1.0240   27.4315    8.0019 H   0  0  0  0  0  0  0  0  0  0  0  0
   -0.9091   31.8082    7.8289 H   0  0  0  0  0  0  0  0  0  0  0  0
   -2.8277   27.2798   10.7988 H   0  0  0  0  0  0  0  0  0  0  0  0
  1 15  2  0  0  0  0
  2 16  1  0  0  0  0
  3  6  1  0  0  0  0
  3  7  1  0  0  0  0
  4 15  1  0  0  0  0
  4 17  1  0  0  0  0
  5  8  1  0  0  0  0
  5  9  1  0  0  0  0
  5 10  1  0  0  0  0
  6  8  1  0  0  0  0
  7  9  1  0  0  0  0
 10 18  1  0  0  0  0
 11 12  1  0  0  0  0
 11 16  2  0  0  0  0
 12 19  2  0  0  0  0
 13 16  1  0  0  0  0
 13 17  2  0  0  0  0
 14 15  1  0  0  0  0
 14 18  2  0  0  0  0
 17 19  1  0  0  0  0
 18 19  1  0  0  0  0
  2 20  1  0  0  0  0
  6 21  1  0  0  0  0
  6 22  1  0  0  0  0
  7 23  1  0  0  0  0
  7 24  1  0  0  0  0
  8 25  1  0  0  0  0
  8 26  1  0  0  0  0
  9 27  1  0  0  0  0
  9 28  1  0  0  0  0
 10 29  1  0  0  0  0
 10 30  1  0  0  0  0
 11 31  1  0  0  0  0
 12 32  1  0  0  0  0
 13 33  1  0  0  0  0
 14 34  1  0  0  0  0
M  END
$$$$
