ES4_A_1299
          05071912473D 1   1.00000     0.00000     0
            
 13 14  0  0  0  0            999 V2000
    0.0166   26.7377    8.3156 Cl  0  0  0  0  0  0  0  0  0  0  0  0
    1.6741   27.8540    6.7371 N   0  0  0  0  0  0  0  0  0  0  0  0
    1.6446   30.1894    6.2811 N   0  0  0  0  0  0  0  0  0  0  0  0
   -0.0481   31.4732    7.4409 N   0  0  0  0  0  0  0  0  0  0  0  0
   -0.9165   29.7956    8.4991 N   0  0  0  0  0  0  0  0  0  0  0  0
    2.2481   28.9395    6.0802 C   0  0  0  0  0  0  0  0  0  0  0  0
   -1.0311   31.1168    8.3039 C   0  0  0  0  0  0  0  0  0  0  0  0
    0.6366   28.0976    7.5590 C   0  0  0  0  0  0  0  0  0  0  0  0
    0.6120   30.3722    7.0905 C   0  0  0  0  0  0  0  0  0  0  0  0
    0.1091   29.3269    7.7676 C   0  0  0  0  0  0  0  0  0  0  0  0
    0.1468   32.4011    7.1232 H   0  0  0  0  0  0  0  0  0  0  0  0
    3.0512   28.8330    5.4939 H   0  0  0  0  0  0  0  0  0  0  0  0
   -1.7112   31.7232    8.7158 H   0  0  0  0  0  0  0  0  0  0  0  0
  1  8  1  0  0  0  0
  2  6  2  0  0  0  0
  2  8  1  0  0  0  0
  3  6  1  0  0  0  0
  3  9  2  0  0  0  0
  4  7  1  0  0  0  0
  4  9  1  0  0  0  0
  5  7  2  0  0  0  0
  5 10  1  0  0  0  0
  8 10  2  0  0  0  0
  9 10  1  0  0  0  0
  4 11  1  0  0  0  0
  6 12  1  0  0  0  0
  7 13  1  0  0  0  0
M  END
$$$$
