56H_A_4000
          05071912473D 1   1.00000     0.00000     0
            
 49 51  0  0  0  0            999 V2000
   -2.0833   30.4718    7.9939 S   0  0  0  0  0  0  0  0  0  0  0  0
    0.3282   28.6783    7.6328 S   0  0  0  0  0  0  0  0  0  0  0  0
    2.1927   26.6327    7.4327 O   0  0  0  0  0  0  0  0  0  0  0  0
   -1.6378   28.3449   10.2856 O   0  0  0  0  0  0  0  0  0  0  0  0
    5.9741   24.4002    5.9752 N   0  0  0  0  0  0  0  0  0  0  0  0
    1.7223   30.6502    6.7098 N   0  0  0  0  0  0  0  0  0  0  0  0
   -3.8283   28.7224   10.6214 N   0  0  0  0  0  0  0  0  0  0  0  0
    2.8870   28.6347    6.6109 N   0  0  0  0  0  0  0  0  0  0  0  0
   -0.9527   25.2980    9.5857 C   0  0  0  0  0  0  0  0  0  0  0  0
   -1.7496   24.9980   11.9209 C   0  0  0  0  0  0  0  0  0  0  0  0
    0.1206   26.5531   11.4585 C   0  0  0  0  0  0  0  0  0  0  0  0
   -2.2651   30.5963    9.7797 C   0  0  0  0  0  0  0  0  0  0  0  0
    5.6469   25.3279    4.8815 C   0  0  0  0  0  0  0  0  0  0  0  0
    6.2060   25.1394    7.2365 C   0  0  0  0  0  0  0  0  0  0  0  0
    0.5151   31.1550    7.1314 C   0  0  0  0  0  0  0  0  0  0  0  0
   -3.5449   27.4074   10.9107 C   0  0  0  0  0  0  0  0  0  0  0  0
    4.3351   26.0263    5.1831 C   0  0  0  0  0  0  0  0  0  0  0  0
    4.8965   25.7926    7.6365 C   0  0  0  0  0  0  0  0  0  0  0  0
   -0.3805   30.2708    7.6219 C   0  0  0  0  0  0  0  0  0  0  0  0
    1.7578   29.3610    6.9166 C   0  0  0  0  0  0  0  0  0  0  0  0
    3.0616   27.3131    6.8953 C   0  0  0  0  0  0  0  0  0  0  0  0
   -2.6513   29.2566   10.2500 C   0  0  0  0  0  0  0  0  0  0  0  0
   -2.1908   27.1604   10.7183 C   0  0  0  0  0  0  0  0  0  0  0  0
    4.4038   26.7528    6.5381 C   0  0  0  0  0  0  0  0  0  0  0  0
   -1.2050   26.0124   10.9143 C   0  0  0  0  0  0  0  0  0  0  0  0
    6.8006   23.8902    5.7369 H   0  0  0  0  0  0  0  0  0  0  0  0
    3.6333   29.1116    6.1465 H   0  0  0  0  0  0  0  0  0  0  0  0
   -0.5959   25.9516    8.9182 H   0  0  0  0  0  0  0  0  0  0  0  0
   -0.2869   24.5646    9.7228 H   0  0  0  0  0  0  0  0  0  0  0  0
   -1.8103   24.9107    9.2474 H   0  0  0  0  0  0  0  0  0  0  0  0
   -1.9188   25.4536   12.7949 H   0  0  0  0  0  0  0  0  0  0  0  0
   -2.6047   24.6116   11.5753 H   0  0  0  0  0  0  0  0  0  0  0  0
   -1.0813   24.2655   12.0507 H   0  0  0  0  0  0  0  0  0  0  0  0
   -0.0417   27.0208   12.3274 H   0  0  0  0  0  0  0  0  0  0  0  0
    0.7563   25.7946   11.6020 H   0  0  0  0  0  0  0  0  0  0  0  0
    0.5129   27.1970   10.8016 H   0  0  0  0  0  0  0  0  0  0  0  0
   -2.9750   31.2620   10.0099 H   0  0  0  0  0  0  0  0  0  0  0  0
   -1.3999   30.8738   10.1974 H   0  0  0  0  0  0  0  0  0  0  0  0
    5.5632   24.8173    4.0257 H   0  0  0  0  0  0  0  0  0  0  0  0
    6.3741   26.0087    4.7937 H   0  0  0  0  0  0  0  0  0  0  0  0
    6.9068   25.8390    7.0971 H   0  0  0  0  0  0  0  0  0  0  0  0
    6.5037   24.5072    7.9518 H   0  0  0  0  0  0  0  0  0  0  0  0
    0.3095   32.1321    7.0776 H   0  0  0  0  0  0  0  0  0  0  0  0
   -4.2143   26.7295   11.2144 H   0  0  0  0  0  0  0  0  0  0  0  0
    3.6010   25.3479    5.2113 H   0  0  0  0  0  0  0  0  0  0  0  0
    4.1452   26.6932    4.4625 H   0  0  0  0  0  0  0  0  0  0  0  0
    5.0321   26.3062    8.4838 H   0  0  0  0  0  0  0  0  0  0  0  0
    4.2079   25.0825    7.7837 H   0  0  0  0  0  0  0  0  0  0  0  0
    5.0540   27.5087    6.4613 H   0  0  0  0  0  0  0  0  0  0  0  0
  1 12  1  0  0  0  0
  1 19  1  0  0  0  0
  2 19  1  0  0  0  0
  2 20  1  0  0  0  0
  3 21  2  0  0  0  0
  4 22  1  0  0  0  0
  4 23  1  0  0  0  0
  5 13  1  0  0  0  0
  5 14  1  0  0  0  0
  6 15  1  0  0  0  0
  6 20  2  0  0  0  0
  7 16  1  0  0  0  0
  7 22  2  0  0  0  0
  8 20  1  0  0  0  0
  8 21  1  0  0  0  0
  9 25  1  0  0  0  0
 10 25  1  0  0  0  0
 11 25  1  0  0  0  0
 12 22  1  0  0  0  0
 13 17  1  0  0  0  0
 14 18  1  0  0  0  0
 15 19  2  0  0  0  0
 16 23  2  0  0  0  0
 17 24  1  0  0  0  0
 18 24  1  0  0  0  0
 21 24  1  0  0  0  0
 23 25  1  0  0  0  0
  5 26  1  0  0  0  0
  8 27  1  0  0  0  0
  9 28  1  0  0  0  0
  9 29  1  0  0  0  0
  9 30  1  0  0  0  0
 10 31  1  0  0  0  0
 10 32  1  0  0  0  0
 10 33  1  0  0  0  0
 11 34  1  0  0  0  0
 11 35  1  0  0  0  0
 11 36  1  0  0  0  0
 12 37  1  0  0  0  0
 12 38  1  0  0  0  0
 13 39  1  0  0  0  0
 13 40  1  0  0  0  0
 14 41  1  0  0  0  0
 14 42  1  0  0  0  0
 15 43  1  0  0  0  0
 16 44  1  0  0  0  0
 17 45  1  0  0  0  0
 17 46  1  0  0  0  0
 18 47  1  0  0  0  0
 18 48  1  0  0  0  0
 24 49  1  0  0  0  0
M  END
$$$$
