1Y6_A_1297
          05071912473D 1   1.00000     0.00000     0
            
 15 15  0  0  0  0            999 V2000
    1.3784   30.1756    6.3378 F   0  0  0  0  0  0  0  0  0  0  0  0
   -3.2912   28.5560   10.2346 O   0  0  0  0  0  0  0  0  0  0  0  0
   -2.9887   30.6744   10.8511 O   0  0  0  0  0  0  0  0  0  0  0  0
    0.1808   28.8206    7.8337 C   0  0  0  0  0  0  0  0  0  0  0  0
   -0.3434   31.1437    7.5951 C   0  0  0  0  0  0  0  0  0  0  0  0
   -0.8275   28.6875    8.7736 C   0  0  0  0  0  0  0  0  0  0  0  0
   -1.3516   31.0217    8.5293 C   0  0  0  0  0  0  0  0  0  0  0  0
    0.3968   30.0473    7.2689 C   0  0  0  0  0  0  0  0  0  0  0  0
   -2.7109   29.6641   10.1485 C   0  0  0  0  0  0  0  0  0  0  0  0
   -1.6034   29.7901    9.1282 C   0  0  0  0  0  0  0  0  0  0  0  0
    0.7078   28.0773    7.5821 H   0  0  0  0  0  0  0  0  0  0  0  0
   -0.1693   31.9661    7.1891 H   0  0  0  0  0  0  0  0  0  0  0  0
   -0.9927   27.8464    9.1737 H   0  0  0  0  0  0  0  0  0  0  0  0
   -1.8653   31.7699    8.7651 H   0  0  0  0  0  0  0  0  0  0  0  0
   -3.0146   27.7994    9.6421 H   0  0  0  0  0  0  0  0  0  0  0  0
  1  8  1  0  0  0  0
  2  9  1  0  0  0  0
  3  9  2  0  0  0  0
  4  6  1  0  0  0  0
  4  8  2  0  0  0  0
  4 11  1  0  0  0  0
  5  7  2  0  0  0  0
  5  8  1  0  0  0  0
  5 12  1  0  0  0  0
  6 10  2  0  0  0  0
  6 13  1  0  0  0  0
  7 10  1  0  0  0  0
  7 14  1  0  0  0  0
  9 10  1  0  0  0  0
  2 15  1  0  0  0  0
M  END
$$$$
