FB8_A_301
          05071912473D 1   1.00000     0.00000     0
            
 47 49  0  0  0  0            999 V2000
    5.0786   23.7868    7.7883 S   0  0  0  0  0  0  0  0  0  0  0  0
    6.4766   24.0820    7.7365 O   0  0  0  0  0  0  0  0  0  0  0  0
    4.5420   23.2431    9.0015 O   0  0  0  0  0  0  0  0  0  0  0  0
    1.1909   30.8306    6.5919 N   0  0  0  0  0  0  0  0  0  0  0  0
   -3.9108   28.4394    9.6474 N   0  0  0  0  0  0  0  0  0  0  0  0
    2.2069   28.7973    6.3071 N   0  0  0  0  0  0  0  0  0  0  0  0
    0.1844   28.8773    7.5476 N   0  0  0  0  0  0  0  0  0  0  0  0
   -1.7369   27.8472    9.6530 N   0  0  0  0  0  0  0  0  0  0  0  0
    4.6958   22.6857    6.4801 C   0  0  0  0  0  0  0  0  0  0  0  0
   -3.3565   26.4481   11.0297 C   0  0  0  0  0  0  0  0  0  0  0  0
   -0.6000   25.6687    9.4360 C   0  0  0  0  0  0  0  0  0  0  0  0
   -0.1518   27.1710   11.4482 C   0  0  0  0  0  0  0  0  0  0  0  0
    0.1854   31.5547    7.0897 C   0  0  0  0  0  0  0  0  0  0  0  0
   -3.2012   29.2946    8.8440 C   0  0  0  0  0  0  0  0  0  0  0  0
   -0.8480   31.0036    7.8215 C   0  0  0  0  0  0  0  0  0  0  0  0
    4.3040   25.7797    6.1002 C   0  0  0  0  0  0  0  0  0  0  0  0
    3.4691   25.9326    8.3548 C   0  0  0  0  0  0  0  0  0  0  0  0
    3.6270   26.9337    5.7661 C   0  0  0  0  0  0  0  0  0  0  0  0
    2.7993   27.0960    8.0242 C   0  0  0  0  0  0  0  0  0  0  0  0
    1.1621   29.4981    6.8495 C   0  0  0  0  0  0  0  0  0  0  0  0
    4.2132   25.2758    7.3878 C   0  0  0  0  0  0  0  0  0  0  0  0
   -3.0244   27.5726   10.1184 C   0  0  0  0  0  0  0  0  0  0  0  0
    2.8573   27.6094    6.7208 C   0  0  0  0  0  0  0  0  0  0  0  0
   -0.5175   27.0923    9.9687 C   0  0  0  0  0  0  0  0  0  0  0  0
   -0.8068   29.6345    8.0599 C   0  0  0  0  0  0  0  0  0  0  0  0
   -1.8748   28.9655    8.8088 C   0  0  0  0  0  0  0  0  0  0  0  0
    2.5767   29.1965    5.4681 H   0  0  0  0  0  0  0  0  0  0  0  0
    3.7199   22.4686    6.5019 H   0  0  0  0  0  0  0  0  0  0  0  0
    4.9223   23.1152    5.6059 H   0  0  0  0  0  0  0  0  0  0  0  0
    5.2268   21.8450    6.5859 H   0  0  0  0  0  0  0  0  0  0  0  0
   -2.5245   25.9367   11.2450 H   0  0  0  0  0  0  0  0  0  0  0  0
   -3.7536   26.8090   11.8735 H   0  0  0  0  0  0  0  0  0  0  0  0
   -4.0148   25.8414   10.5843 H   0  0  0  0  0  0  0  0  0  0  0  0
    0.2410   25.1781    9.6642 H   0  0  0  0  0  0  0  0  0  0  0  0
   -1.3811   25.2021    9.8511 H   0  0  0  0  0  0  0  0  0  0  0  0
   -0.7141   25.6905    8.4428 H   0  0  0  0  0  0  0  0  0  0  0  0
    0.6817   26.6440   11.6140 H   0  0  0  0  0  0  0  0  0  0  0  0
    0.0012   28.1257   11.7035 H   0  0  0  0  0  0  0  0  0  0  0  0
   -0.8986   26.7949   11.9967 H   0  0  0  0  0  0  0  0  0  0  0  0
    0.1805   32.5410    6.9251 H   0  0  0  0  0  0  0  0  0  0  0  0
   -3.6036   30.0628    8.3462 H   0  0  0  0  0  0  0  0  0  0  0  0
   -1.5978   31.5681    8.1669 H   0  0  0  0  0  0  0  0  0  0  0  0
    4.8589   25.3078    5.4150 H   0  0  0  0  0  0  0  0  0  0  0  0
    3.4170   25.5679    9.2845 H   0  0  0  0  0  0  0  0  0  0  0  0
    3.6863   27.2910    4.8340 H   0  0  0  0  0  0  0  0  0  0  0  0
    2.2680   27.5764    8.7220 H   0  0  0  0  0  0  0  0  0  0  0  0
    0.2265   27.5373    9.4703 H   0  0  0  0  0  0  0  0  0  0  0  0
  1  2  2  0  0  0  0
  1  3  2  0  0  0  0
  1  9  1  0  0  0  0
  1 21  1  0  0  0  0
  4 13  2  0  0  0  0
  4 20  1  0  0  0  0
  5 14  1  0  0  0  0
  5 22  2  0  0  0  0
  6 20  1  0  0  0  0
  6 23  1  0  0  0  0
  7 20  2  0  0  0  0
  7 25  1  0  0  0  0
  8 22  1  0  0  0  0
  8 24  1  0  0  0  0
  8 26  1  0  0  0  0
 10 22  1  0  0  0  0
 11 24  1  0  0  0  0
 12 24  1  0  0  0  0
 13 15  1  0  0  0  0
 14 26  2  0  0  0  0
 15 25  2  0  0  0  0
 16 18  1  0  0  0  0
 16 21  2  0  0  0  0
 17 19  2  0  0  0  0
 17 21  1  0  0  0  0
 18 23  2  0  0  0  0
 19 23  1  0  0  0  0
 25 26  1  0  0  0  0
  6 27  1  0  0  0  0
  9 28  1  0  0  0  0
  9 29  1  0  0  0  0
  9 30  1  0  0  0  0
 10 31  1  0  0  0  0
 10 32  1  0  0  0  0
 10 33  1  0  0  0  0
 11 34  1  0  0  0  0
 11 35  1  0  0  0  0
 11 36  1  0  0  0  0
 12 37  1  0  0  0  0
 12 38  1  0  0  0  0
 12 39  1  0  0  0  0
 13 40  1  0  0  0  0
 14 41  1  0  0  0  0
 15 42  1  0  0  0  0
 16 43  1  0  0  0  0
 17 44  1  0  0  0  0
 18 45  1  0  0  0  0
 19 46  1  0  0  0  0
 24 47  1  0  0  0  0
M  END
$$$$
