FC8_A_301
          05071912473D 1   1.00000     0.00000     0
            
 51 54  0  0  0  0            999 V2000
    6.3217   24.0145    8.3198 Cl  0  0  0  0  0  0  0  0  0  0  0  0
    2.1237   24.3580   11.0139 N   0  0  0  0  0  0  0  0  0  0  0  0
    1.8555   30.2248    6.4109 N   0  0  0  0  0  0  0  0  0  0  0  0
    1.9850   26.6898    7.5887 N   0  0  0  0  0  0  0  0  0  0  0  0
    0.0517   27.8970    8.4686 N   0  0  0  0  0  0  0  0  0  0  0  0
    0.4575   25.6847    8.9939 N   0  0  0  0  0  0  0  0  0  0  0  0
    3.5376   27.6767    6.1426 N   0  0  0  0  0  0  0  0  0  0  0  0
   -0.0378   30.1863    7.6658 N   0  0  0  0  0  0  0  0  0  0  0  0
   -2.5607   30.0339    8.0130 C   0  0  0  0  0  0  0  0  0  0  0  0
    0.8253   30.9175    6.8616 C   0  0  0  0  0  0  0  0  0  0  0  0
   -1.2400   30.6843    8.3602 C   0  0  0  0  0  0  0  0  0  0  0  0
    2.0349   21.7294    9.4591 C   0  0  0  0  0  0  0  0  0  0  0  0
    0.7396   21.9157    8.6877 C   0  0  0  0  0  0  0  0  0  0  0  0
    5.6970   25.1451    4.5871 C   0  0  0  0  0  0  0  0  0  0  0  0
    6.1468   24.4458    5.6706 C   0  0  0  0  0  0  0  0  0  0  0  0
    3.0041   22.8863    9.2178 C   0  0  0  0  0  0  0  0  0  0  0  0
    4.8250   26.2114    4.7508 C   0  0  0  0  0  0  0  0  0  0  0  0
    0.0811   23.2680    8.9849 C   0  0  0  0  0  0  0  0  0  0  0  0
    4.8543   25.8657    7.1317 C   0  0  0  0  0  0  0  0  0  0  0  0
    0.8338   26.8085    8.3237 C   0  0  0  0  0  0  0  0  0  0  0  0
    5.7405   24.8488    6.9179 C   0  0  0  0  0  0  0  0  0  0  0  0
    2.3993   27.7636    6.8829 C   0  0  0  0  0  0  0  0  0  0  0  0
    0.5329   28.9632    7.7655 C   0  0  0  0  0  0  0  0  0  0  0  0
    2.3656   24.2368    9.5362 C   0  0  1  0  0  0  0  0  0  0  0  0
    4.4285   26.5958    6.0246 C   0  0  0  0  0  0  0  0  0  0  0  0
    1.0807   24.3965    8.7166 C   0  0  2  0  0  0  0  0  0  0  0  0
    1.6620   28.9618    6.9590 C   0  0  0  0  0  0  0  0  0  0  0  0
    1.7058   25.2448   11.2116 H   0  0  0  0  0  0  0  0  0  0  0  0
    1.5105   23.6266   11.3124 H   0  0  0  0  0  0  0  0  0  0  0  0
   -0.2592   25.7441    9.6888 H   0  0  0  0  0  0  0  0  0  0  0  0
    3.7718   28.4908    5.6112 H   0  0  0  0  0  0  0  0  0  0  0  0
   -3.2918   30.4580    8.5476 H   0  0  0  0  0  0  0  0  0  0  0  0
   -2.7466   30.1565    7.0381 H   0  0  0  0  0  0  0  0  0  0  0  0
   -2.5170   29.0574    8.2238 H   0  0  0  0  0  0  0  0  0  0  0  0
    0.6802   31.8824    6.6430 H   0  0  0  0  0  0  0  0  0  0  0  0
   -1.3225   31.6597    8.1558 H   0  0  0  0  0  0  0  0  0  0  0  0
   -1.0930   30.5606    9.3415 H   0  0  0  0  0  0  0  0  0  0  0  0
    2.4676   20.8769    9.1658 H   0  0  0  0  0  0  0  0  0  0  0  0
    1.8266   21.6786   10.4358 H   0  0  0  0  0  0  0  0  0  0  0  0
    0.1053   21.1854    8.9413 H   0  0  0  0  0  0  0  0  0  0  0  0
    0.9365   21.8611    7.7088 H   0  0  0  0  0  0  0  0  0  0  0  0
    5.9984   24.8866    3.6693 H   0  0  0  0  0  0  0  0  0  0  0  0
    6.7561   23.6609    5.5581 H   0  0  0  0  0  0  0  0  0  0  0  0
    3.2844   22.8790    8.2579 H   0  0  0  0  0  0  0  0  0  0  0  0
    3.8073   22.7626    9.8006 H   0  0  0  0  0  0  0  0  0  0  0  0
    4.4818   26.7035    3.9509 H   0  0  0  0  0  0  0  0  0  0  0  0
   -0.2033   23.2961    9.9432 H   0  0  0  0  0  0  0  0  0  0  0  0
   -0.7189   23.3851    8.3963 H   0  0  0  0  0  0  0  0  0  0  0  0
    4.5227   26.0785    8.0508 H   0  0  0  0  0  0  0  0  0  0  0  0
    3.0032   24.9570    9.2629 H   0  0  0  0  0  0  0  0  0  0  0  0
    1.3251   24.3715    7.7473 H   0  0  0  0  0  0  0  0  0  0  0  0
  1 21  1  0  0  0  0
  2 24  1  0  0  0  0
  3 10  2  0  0  0  0
  3 27  1  0  0  0  0
  4 20  2  0  0  0  0
  4 22  1  0  0  0  0
  5 20  1  0  0  0  0
  5 23  2  0  0  0  0
  6 20  1  0  0  0  0
  6 26  1  0  0  0  0
  7 22  1  0  0  0  0
  7 25  1  0  0  0  0
  8 10  1  0  0  0  0
  8 11  1  0  0  0  0
  8 23  1  0  0  0  0
  9 11  1  0  0  0  0
 12 13  1  0  0  0  0
 12 16  1  0  0  0  0
 13 18  1  0  0  0  0
 14 15  2  0  0  0  0
 14 17  1  0  0  0  0
 15 21  1  0  0  0  0
 16 24  1  0  0  0  0
 17 25  2  0  0  0  0
 18 26  1  0  0  0  0
 19 21  2  0  0  0  0
 19 25  1  0  0  0  0
 22 27  2  0  0  0  0
 23 27  1  0  0  0  0
 24 26  1  0  0  0  0
  2 28  1  0  0  0  0
  2 29  1  0  0  0  0
  6 30  1  0  0  0  0
  7 31  1  0  0  0  0
  9 32  1  0  0  0  0
  9 33  1  0  0  0  0
  9 34  1  0  0  0  0
 10 35  1  0  0  0  0
 11 36  1  0  0  0  0
 11 37  1  0  0  0  0
 12 38  1  0  0  0  0
 12 39  1  0  0  0  0
 13 40  1  0  0  0  0
 13 41  1  0  0  0  0
 14 42  1  0  0  0  0
 15 43  1  0  0  0  0
 16 44  1  0  0  0  0
 16 45  1  0  0  0  0
 17 46  1  0  0  0  0
 18 47  1  0  0  0  0
 18 48  1  0  0  0  0
 19 49  1  0  0  0  0
 24 50  1  0  0  0  0
 26 51  1  0  0  0  0
M  END
$$$$
